test/data/C2S6N02045/scenario_1/case.raw
0,100.0,33,0,1,60.0
GRID OPTIMIZATION COMPETITION CHALLENGE 2
INPUT DATA FILES ARE RAW JSON CON
20401,'Rockport',345.0,2,9,1,1,1.01999998,-7.963777,1.1,0.9,1.1,0.9
20403,'Michigan C~1',345.0,2,9,1,1,1.01931596,-45.66434,1.1,0.9,1.1,0.9
20405,'Cayuga',345.0,2,9,1,1,1.01999998,-31.598675,1.1,0.9,1.1,0.9
20407,'A B Brown',345.0,2,9,1,1,1.01999998,-5.781873,1.1,0.9,1.1,0.9
20408,'Clifty Creek',345.0,2,9,1,1,1.01999998,-27.684317,1.1,0.9,1.1,0.9
20409,'Sugar Cree~1',345.0,2,9,1,1,1.01999998,-26.133188,1.1,0.9,1.1,0.9
20410,'Meadow Lak~4',345.0,2,9,1,1,1.01878989,-42.441484,1.1,0.9,1.1,0.9
20411,'Bailly',345.0,2,9,1,1,1.01999998,-46.735228,1.1,0.9,1.1,0.9
20412,'Whiting Cl~1',345.0,2,9,1,1,1.01999998,-48.246247,1.1,0.9,1.1,0.9
20414,'Harding St~1',345.0,2,9,1,1,0.9955641,-39.490159,1.1,0.9,1.1,0.9
20415,'Warrick',345.0,2,9,1,1,1.01999998,-6.406745,1.1,0.9,1.1,0.9
20416,'Gary Works',138.0,2,9,1,1,1.0098809,-50.00849,1.1,0.9,1.1,0.9
20418,'ArcelorMit~2',345.0,2,9,1,1,1.01999998,-48.302377,1.1,0.9,1.1,0.9
20419,'R Gallagher',345.0,2,9,1,1,1.01980686,-21.675126,1.1,0.9,1.1,0.9
20420,'Benton Cou~1',345.0,1,9,1,1,1.01885903,-40.47275,1.1,0.9,1.1,0.9
20421,'R M Schahfer',138.0,2,9,1,1,1.01999998,-45.116364,1.1,0.9,1.1,0.9
20422,'Dean H Mit~1',345.0,2,9,1,1,1.01999998,-48.130717,1.1,0.9,1.1,0.9
20423,'Wheatland ~1',345.0,2,9,1,1,1.01999998,-13.048855,1.1,0.9,1.1,0.9
20424,'Frank E Ra~1',345.0,1,9,1,1,1.02004194,-11.720841,1.1,0.9,1.1,0.9
20425,'Wabash River',765.0,1,9,1,1,1.01438475,-32.983851,1.1,0.9,1.1,0.9
20426,'Hoosier Wi~1',345.0,1,9,1,1,1.01732695,-41.332613,1.1,0.9,1.1,0.9
20427,'Miami Wabash',345.0,1,9,1,1,0.98522204,-45.724353,1.1,0.9,1.1,0.9
20428,'F B Culley',345.0,2,9,1,1,1.01999998,-6.385878,1.1,0.9,1.1,0.9
20429,'Meadow Lak~2',138.0,2,9,1,1,1.01784015,-40.777561,1.1,0.9,1.1,0.9
20430,'Fowler Rid~1',345.0,2,9,1,1,1.01999998,-39.34093,1.1,0.9,1.1,0.9
20431,'Meadow Lak~1',138.0,2,9,1,1,1.01999998,-40.394517,1.1,0.9,1.1,0.9
20432,'Meadow Lak~3',138.0,2,9,1,1,1.01999998,-40.301777,1.1,0.9,1.1,0.9
20435,'Whiting Re~1',138.0,2,9,1,1,1.00871491,-50.339345,1.1,0.9,1.1,0.9
20436,'Vermillion~1',345.0,2,9,1,1,1.01999998,-31.683786,1.1,0.9,1.1,0.9
20437,'Georgetown',345.0,2,9,1,1,0.98708934,-42.158216,1.1,0.9,1.1,0.9
20438,'Lawrence C~1',345.0,2,9,1,1,1.0033797,-23.511521,1.1,0.9,1.1,0.9
20439,'Portside E~1',138.0,2,9,1,1,1.00995231,-49.023389,1.1,0.9,1.1,0.9
20440,'Noblesville',345.0,2,9,1,1,0.99307287,-43.684394,1.1,0.9,1.1,0.9
20441,'Worthingto~1',345.0,1,9,1,1,1.00406289,-23.249361,1.1,0.9,1.1,0.9
20442,'Montpelier~1',345.0,2,9,1,1,0.99832636,-49.941322,1.1,0.9,1.1,0.9
20443,'Broadway (~1',345.0,1,9,1,1,1.01787806,-6.571697,1.1,0.9,1.1,0.9
20444,'ArcelorMit~1',138.0,2,9,1,1,1.01304162,-48.623352,1.1,0.9,1.1,0.9
20445,'Eagle Vall~1',138.0,2,9,1,1,1.01809514,-34.107762,1.1,0.9,1.1,0.9
20446,'Connersville',138.0,2,9,1,1,0.98789871,-42.048028,1.1,0.9,1.1,0.9
20447,'Richmond',345.0,1,9,1,1,1.00244689,-42.365488,1.1,0.9,1.1,0.9
20448,'Anderson',138.0,2,9,1,1,0.99402499,-45.635014,1.1,0.9,1.1,0.9
20449,'Edwardsport',138.0,2,9,1,1,1.01999998,-17.000607,1.1,0.9,1.1,0.9
20450,'Whitewater~1',138.0,2,9,1,1,1.00366831,-42.837826,1.1,0.9,1.1,0.9
20455,'Northeast ~1',138.0,2,9,1,1,1.00445175,-8.778332,1.1,0.9,1.1,0.9
20458,'Midland Co~1',765.0,1,17,1,1,1.00088525,-23.695289,1.1,0.9,1.1,0.9
20459,'Donald C C~1',765.0,1,17,1,1,1.00331342,-33.634683,1.1,0.9,1.1,0.9
20460,'Palisades',345.0,3,17,1,1,1.01999998,-33.420054,1.1,0.9,1.1,0.9
20462,'Ludington',345.0,2,17,1,1,1.01999998,-19.634089,1.1,0.9,1.1,0.9
20464,'J H Campbell',345.0,2,17,1,1,1.01999998,-30.487649,1.1,0.9,1.1,0.9
20465,'New Covert~1',345.0,2,17,1,1,1.01999998,-33.412828,1.1,0.9,1.1,0.9
20467,'Zeeland Ge~1',345.0,2,17,1,1,1.01999998,-31.835635,1.1,0.9,1.1,0.9
20469,'Renaissanc~1',345.0,2,17,1,1,1.01999998,-25.202032,1.1,0.9,1.1,0.9
20472,'Erickson S~1',138.0,2,17,1,1,1.0115248,-32.423997,1.1,0.9,1.1,0.9
20482,'Michigan P~1',345.0,1,17,1,1,1.01944089,-20.042973,1.1,0.9,1.1,0.9
20483,'Gaylord - ~1',138.0,2,17,1,1,1.01999998,-27.200013,1.1,0.9,1.1,0.9
20484,'J B Sims',345.0,1,17,1,1,1.01004338,-29.197423,1.1,0.9,1.1,0.9
20486,'Kalamazoo ~1',345.0,1,17,1,1,0.99462658,-38.74226,1.1,0.9,1.1,0.9
20491,'Superior',138.0,1,17,1,1,0.99340075,-72.464544,1.1,0.9,1.1,0.9
20492,'T B Simon ~1',138.0,1,17,1,1,0.95611453,-34.55461,1.1,0.9,1.1,0.9
20494,'Jackson Ge~1',138.0,2,17,1,1,1.01999998,-69.210478,1.1,0.9,1.1,0.9
20495,'Stoney Cor~1',138.0,1,17,1,1,1.01213551,-25.701913,1.1,0.9,1.1,0.9
20499,'University~1',138.0,1,17,1,1,0.99417877,-72.399971,1.1,0.9,1.1,0.9
20500,'Eckert Sta~1',345.0,2,17,1,1,1.01999998,-28.135728,1.1,0.9,1.1,0.9
20501,'Cadillac R~1',138.0,1,17,1,1,1.01235068,-25.277412,1.1,0.9,1.1,0.9
20502,'Livingston~1',138.0,2,17,1,1,1.01999998,-27.118831,1.1,0.9,1.1,0.9
20505,'491 E 48th~1',345.0,1,17,1,1,1.01424301,-32.258642,1.1,0.9,1.1,0.9
20507,'B E Morrow',138.0,2,17,1,1,0.99368441,-38.962356,1.1,0.9,1.1,0.9
20508,'Ada Cogene~1',138.0,1,17,1,1,0.99062103,-33.707387,1.1,0.9,1.1,0.9
20511,'Escanaba M~1',345.0,1,17,1,1,1.0235889,-43.362306,1.1,0.9,1.1,0.9
20516,'Sixth Stre~1',138.0,1,17,1,1,1.00846744,-32.707174,1.1,0.9,1.1,0.9
20521,'Claude Van~1',138.0,1,17,1,1,1.00152624,-34.5957,1.1,0.9,1.1,0.9
20524,'James De Y~1',138.0,1,17,1,1,1.00884223,-32.632089,1.1,0.9,1.1,0.9
20525,'Otsego Mil~1',138.0,1,17,1,1,0.98748982,-37.463987,1.1,0.9,1.1,0.9
20526,'Shiras',138.0,1,17,1,1,1.01818419,-42.896043,1.1,0.9,1.1,0.9
20527,'C W Tippy',138.0,2,17,1,1,1.01511955,-23.995785,1.1,0.9,1.1,0.9
20538,'Richland',345.0,2,27,1,1,1.01999998,-53.671203,1.1,0.9,1.1,0.9
20544,'Robert P M~1',345.0,2,27,1,1,1.0029968,-51.452993,1.1,0.9,1.1,0.9
20558,'Dicks Creek',345.0,1,27,1,1,1.01682818,-38.345567,1.1,0.9,1.1,0.9
20561,'Madison',345.0,2,27,1,1,1.01999998,-38.077772,1.1,0.9,1.1,0.9
20565,'O H Hutchi~1',345.0,2,27,1,1,1.01999998,-38.47339,1.1,0.9,1.1,0.9
20568,'Miami Fort',345.0,2,27,1,1,1.01984286,-32.668846,1.1,0.9,1.1,0.9
20569,'Greenville~1',138.0,2,27,1,1,1.01999998,-45.031854,1.1,0.9,1.1,0.9
20573,'Bryan (OH)',138.0,2,27,1,1,0.99612403,-56.135727,1.1,0.9,1.1,0.9
20576,'Napoleon P~1',138.0,1,27,1,1,0.9946391,-55.840502,1.1,0.9,1.1,0.9
20578,'Hamilton P~1',138.0,2,27,1,1,0.9920671,-38.556647,1.1,0.9,1.1,0.9
20584,'Hamilton (~1',138.0,2,27,1,1,1.0,-37.953681,1.1,0.9,1.1,0.9
20593,'18001030100',138.0,1,9,1,1,0.97662491,-53.269403,1.1,0.9,1.1,0.9
20594,'18001030200',138.0,1,9,1,1,0.97627825,-53.2588,1.1,0.9,1.1,0.9
20595,'18001030300',138.0,1,9,1,1,0.97586876,-53.167391,1.1,0.9,1.1,0.9
20596,'18001030400',138.0,1,9,1,1,0.97616726,-52.973352,1.1,0.9,1.1,0.9
20597,'18001030500',138.0,1,9,1,1,0.97708011,-52.50183,1.1,0.9,1.1,0.9
20598,'18001030600',138.0,1,9,1,1,0.9769398,-52.568182,1.1,0.9,1.1,0.9
20599,'18001030700',138.0,1,9,1,1,0.97840905,-52.268214,1.1,0.9,1.1,0.9
20600,'18003000100',138.0,1,9,1,1,0.96521634,-53.460307,1.1,0.9,1.1,0.9
20601,'18003000300',138.0,1,9,1,1,0.9657675,-53.451404,1.1,0.9,1.1,0.9
20613,'18003001600',345.0,1,9,1,1,0.97718501,-51.62035,1.1,0.9,1.1,0.9
20614,'18003001700',345.0,1,9,1,1,0.9769482,-51.654125,1.1,0.9,1.1,0.9
20615,'18003002000',138.0,1,9,1,1,0.96592969,-53.539794,1.1,0.9,1.1,0.9
20616,'18003002100',138.0,1,9,1,1,0.96547812,-53.590849,1.1,0.9,1.1,0.9
20617,'18003002200',138.0,1,9,1,1,0.96466261,-53.706167,1.1,0.9,1.1,0.9
20618,'18003002300',138.0,1,9,1,1,0.96975493,-53.439161,1.1,0.9,1.1,0.9
20623,'18003003000',138.0,1,9,1,1,0.97022867,-53.396698,1.1,0.9,1.1,0.9
20627,'18003003304',138.0,1,9,1,1,0.96475661,-53.403371,1.1,0.9,1.1,0.9
20629,'18003003500',138.0,1,9,1,1,0.96641821,-53.489298,1.1,0.9,1.1,0.9
20635,'18003004000',138.0,1,9,1,1,0.96996754,-53.421481,1.1,0.9,1.1,0.9
20638,'18003004300',345.0,1,9,1,1,0.97807157,-51.703934,1.1,0.9,1.1,0.9
20639,'18003004400',138.0,1,9,1,1,0.96658957,-53.476546,1.1,0.9,1.1,0.9
20642,'18003010202',138.0,1,9,1,1,0.96577144,-55.494949,1.1,0.9,1.1,0.9
20643,'18003010304',138.0,1,9,1,1,0.95875794,-55.707648,1.1,0.9,1.1,0.9
20644,'18003010305',138.0,1,9,1,1,0.95773208,-56.061913,1.1,0.9,1.1,0.9
20650,'18003010601',138.0,1,9,1,1,0.95941353,-54.686176,1.1,0.9,1.1,0.9
20651,'18003010602',138.0,1,9,1,1,0.96477485,-52.941882,1.1,0.9,1.1,0.9
20652,'18003010603',138.0,1,9,1,1,0.96449786,-53.264865,1.1,0.9,1.1,0.9
20653,'18003010604',345.0,1,9,1,1,0.97367573,-52.082026,1.1,0.9,1.1,0.9
20655,'18003010706',138.0,1,9,1,1,0.96026498,-55.064657,1.1,0.9,1.1,0.9
20656,'18003010707',138.0,1,9,1,1,0.95961094,-55.363266,1.1,0.9,1.1,0.9
20660,'18003010808',138.0,1,9,1,1,0.95755035,-55.805941,1.1,0.9,1.1,0.9
20661,'18003010809',138.0,1,9,1,1,0.95755273,-55.805996,1.1,0.9,1.1,0.9
20662,'18003010811',138.0,1,9,1,1,0.96961975,-53.496938,1.1,0.9,1.1,0.9
20671,'18003011000',345.0,1,9,1,1,0.99255139,-51.741299,1.1,0.9,1.1,0.9
20672,'18003011100',138.0,1,9,1,1,0.9697842,-53.469654,1.1,0.9,1.1,0.9
20673,'18003011201',345.0,1,9,1,1,0.98115593,-51.7795,1.1,0.9,1.1,0.9
20678,'18003011303',138.0,1,9,1,1,0.97150242,-53.384345,1.1,0.9,1.1,0.9
20679,'18003011304',138.0,1,9,1,1,0.97246611,-53.369302,1.1,0.9,1.1,0.9
20680,'18003011501',138.0,1,9,1,1,0.96360952,-53.813418,1.1,0.9,1.1,0.9
20681,'18003011502',138.0,1,9,1,1,0.96429992,-53.491969,1.1,0.9,1.1,0.9
20686,'18003011607',138.0,1,9,1,1,0.96024942,-54.386419,1.1,0.9,1.1,0.9
20690,'18003011702',345.0,1,9,1,1,0.98137748,-51.398382,1.1,0.9,1.1,0.9
20691,'18003011801',138.0,1,9,1,1,0.97480506,-53.297786,1.1,0.9,1.1,0.9
20692,'18003011802',138.0,1,9,1,1,0.97952223,-53.096531,1.1,0.9,1.1,0.9
20693,'18003011900',345.0,1,9,1,1,0.9976269,-51.631995,1.1,0.9,1.1,0.9
20695,'18003980002',345.0,1,9,1,1,0.97399098,-52.048155,1.1,0.9,1.1,0.9
20696,'18005010100',345.0,1,9,1,1,0.9826721,-33.934384,1.1,0.9,1.1,0.9
20697,'18005010200',345.0,1,9,1,1,0.98220408,-34.320898,1.1,0.9,1.1,0.9
20698,'18005010300',345.0,1,9,1,1,0.98216468,-34.335159,1.1,0.9,1.1,0.9
20699,'18005010400',138.0,1,9,1,1,0.97981918,-35.153894,1.1,0.9,1.1,0.9
20700,'18005010500',138.0,1,9,1,1,0.97441882,-35.750474,1.1,0.9,1.1,0.9
20702,'18005010700',345.0,1,9,1,1,0.9822762,-34.28715,1.1,0.9,1.1,0.9
20705,'18005011000',345.0,1,9,1,1,0.98418415,-32.073503,1.1,0.9,1.1,0.9
20706,'18005011100',138.0,1,9,1,1,0.98219723,-35.861717,1.1,0.9,1.1,0.9
20707,'18005011200',138.0,1,9,1,1,0.97433639,-36.113799,1.1,0.9,1.1,0.9
20710,'18005011500',345.0,1,9,1,1,0.98598623,-31.816145,1.1,0.9,1.1,0.9
20712,'18007100200',138.0,1,9,1,1,1.0184207,-40.118117,1.1,0.9,1.1,0.9
20713,'18007100300',345.0,1,9,1,1,1.01813793,-40.700083,1.1,0.9,1.1,0.9
20714,'18009975100',138.0,1,9,1,1,0.98163688,-50.143455,1.1,0.9,1.1,0.9
20715,'18009975200',138.0,1,9,1,1,0.97870463,-49.790501,1.1,0.9,1.1,0.9
20716,'18009975300',138.0,1,9,1,1,0.97790581,-49.62533,1.1,0.9,1.1,0.9
20718,'18011810100',138.0,1,9,1,1,0.97587168,-43.480311,1.1,0.9,1.1,0.9
20719,'18011810200',138.0,1,9,1,1,0.98417687,-42.091229,1.1,0.9,1.1,0.9
20720,'18011810300',345.0,1,9,1,1,0.99138898,-41.089236,1.1,0.9,1.1,0.9
20723,'18011810601',138.0,1,9,1,1,0.97899157,-43.207357,1.1,0.9,1.1,0.9
20724,'18011810603',345.0,1,9,1,1,0.98609072,-42.011804,1.1,0.9,1.1,0.9
20726,'18011810605',345.0,1,9,1,1,0.98583198,-42.29528,1.1,0.9,1.1,0.9
20728,'18013974600',138.0,1,9,1,1,0.9844141,-34.107287,1.1,0.9,1.1,0.9
20730,'18013974800',138.0,1,9,1,1,0.9817571,-33.304245,1.1,0.9,1.1,0.9
20731,'18013974900',138.0,1,9,1,1,0.97887135,-31.8491,1.1,0.9,1.1,0.9
20732,'18015959300',345.0,1,9,1,1,0.99453419,-42.139989,1.1,0.9,1.1,0.9
20735,'18015959600',345.0,1,9,1,1,0.99700403,-41.307639,1.1,0.9,1.1,0.9
20736,'18015959700',138.0,1,9,1,1,0.98983729,-42.61662,1.1,0.9,1.1,0.9
20737,'18015959800',345.0,1,9,1,1,0.99556506,-41.807663,1.1,0.9,1.1,0.9
20741,'18017951100',138.0,1,9,1,1,0.99843287,-43.675966,1.1,0.9,1.1,0.9
20744,'18017951400',138.0,1,9,1,1,0.99462545,-42.859621,1.1,0.9,1.1,0.9
20747,'18017951700',345.0,1,9,1,1,0.99221492,-42.797829,1.1,0.9,1.1,0.9
20748,'18017951800',765.0,2,9,1,1,1.0,-37.712442,1.1,0.9,1.1,0.9
20749,'18017951900',345.0,1,9,1,1,0.99376935,-43.843879,1.1,0.9,1.1,0.9
20751,'18019050200',345.0,1,9,1,1,1.01823401,-22.148304,1.1,0.9,1.1,0.9
20752,'18019050303',345.0,1,9,1,1,1.01809669,-22.217641,1.1,0.9,1.1,0.9
20759,'18019050501',138.0,1,9,1,1,1.00436175,-24.138334,1.1,0.9,1.1,0.9
20760,'18019050503',138.0,1,9,1,1,1.00349998,-24.268229,1.1,0.9,1.1,0.9
20761,'18019050504',138.0,1,9,1,1,1.00276697,-24.361688,1.1,0.9,1.1,0.9
20762,'18019050603',345.0,1,9,1,1,1.01764643,-22.391477,1.1,0.9,1.1,0.9
20764,'18019050605',138.0,1,9,1,1,1.00187337,-24.519501,1.1,0.9,1.1,0.9
20766,'18019050701',345.0,1,9,1,1,1.01704133,-22.80184,1.1,0.9,1.1,0.9
20767,'18019050703',138.0,1,9,1,1,1.00564504,-24.462763,1.1,0.9,1.1,0.9
20769,'18019050801',138.0,1,9,1,1,0.99241489,-24.263769,1.1,0.9,1.1,0.9
20770,'18019050803',138.0,1,9,1,1,0.99249172,-25.387487,1.1,0.9,1.1,0.9
20771,'18019050804',138.0,1,9,1,1,0.99279529,-26.039512,1.1,0.9,1.1,0.9
20772,'18019050902',138.0,1,9,1,1,1.00660622,-25.306826,1.1,0.9,1.1,0.9
20773,'18019050903',345.0,1,9,1,1,1.01627278,-23.493718,1.1,0.9,1.1,0.9
20775,'18019051000',138.0,1,9,1,1,1.00490856,-26.314946,1.1,0.9,1.1,0.9
20776,'18021040100',138.0,1,9,1,1,0.98756951,-29.414599,1.1,0.9,1.1,0.9
20777,'18021040200',138.0,1,9,1,1,0.98328388,-29.52559,1.1,0.9,1.1,0.9
20778,'18021040300',138.0,1,9,1,1,0.98150969,-29.97046,1.1,0.9,1.1,0.9
20779,'18021040400',138.0,1,9,1,1,0.98955292,-29.338132,1.1,0.9,1.1,0.9
20780,'18021040500',138.0,1,9,1,1,0.9887349,-27.192682,1.1,0.9,1.1,0.9
20781,'18021040600',138.0,1,9,1,1,0.99449813,-24.51762,1.1,0.9,1.1,0.9
20783,'18023950200',138.0,1,9,1,1,0.97528213,-43.532965,1.1,0.9,1.1,0.9
20785,'18023950400',138.0,1,9,1,1,0.972664,-43.720249,1.1,0.9,1.1,0.9
20786,'18023950500',138.0,1,9,1,1,0.97231156,-43.722363,1.1,0.9,1.1,0.9
20787,'18023950600',138.0,1,9,1,1,0.9729895,-43.674968,1.1,0.9,1.1,0.9
20788,'18023950700',138.0,1,9,1,1,0.97275203,-43.690022,1.1,0.9,1.1,0.9
20790,'18025951900',138.0,1,9,1,1,0.99800736,-20.333991,1.1,0.9,1.1,0.9
20792,'18025952100',345.0,1,9,1,1,1.00916672,-16.837646,1.1,0.9,1.1,0.9
20793,'18027954300',138.0,1,9,1,1,1.00753582,-19.984736,1.1,0.9,1.1,0.9
20795,'18027954500',138.0,1,9,1,1,0.99945891,-16.031765,1.1,0.9,1.1,0.9
20796,'18027954600',345.0,1,9,1,1,1.01817608,-12.530447,1.1,0.9,1.1,0.9
20797,'18027954700',138.0,1,9,1,1,1.01240611,-14.202003,1.1,0.9,1.1,0.9
20798,'18027954800',138.0,1,9,1,1,1.01188278,-14.116701,1.1,0.9,1.1,0.9
20799,'18027954900',138.0,1,9,1,1,1.01158011,-14.037432,1.1,0.9,1.1,0.9
20805,'18029080300',345.0,1,9,1,1,1.01990795,-32.254561,1.1,0.9,1.1,0.9
...
0 / END OF BUS DATA BEGIN LOAD DATA
20425,'1',1,9,1,100.0,0.0,0.0,0.0,0.0,0.0,1,1,0
20459,'1',1,17,1,100.0,0.0,0.0,0.0,0.0,0.0,1,1,0
20593,'1',1,9,1,14.689,3.865,0.0,0.0,0.0,0.0,1,1,0
20594,'1',1,9,1,72.581,18.143,0.0,0.0,0.0,0.0,1,1,0
20595,'1',1,9,1,17.083,4.266,0.0,0.0,0.0,0.0,1,1,0
20596,'1',1,9,1,4.608,1.154,0.0,0.0,0.0,0.0,1,1,0
20599,'1',1,9,1,16.664,4.882,0.0,0.0,0.0,0.0,1,1,0
20615,'1',1,9,1,5.224,1.308,0.0,0.0,0.0,0.0,1,1,0
20635,'1',1,9,1,3.36,0.838,0.0,0.0,0.0,0.0,1,1,0
20651,'1',1,9,1,16.305,4.078,0.0,0.0,0.0,0.0,1,1,0
20679,'1',1,9,1,5.959,1.488,0.0,0.0,0.0,0.0,1,1,0
20691,'1',1,9,1,6.156,1.539,0.0,0.0,0.0,0.0,1,1,0
20692,'1',1,9,1,2.454,1.129,0.0,0.0,0.0,0.0,1,1,0
20707,'1',1,9,1,7.969,3.334,0.0,0.0,0.0,0.0,1,1,0
20712,'1',1,9,1,11.038,3.557,0.0,0.0,0.0,0.0,1,1,0
20714,'1',1,9,1,19.973,6.72,0.0,0.0,0.0,0.0,1,1,0
20715,'1',1,9,1,8.96,2.659,0.0,0.0,0.0,0.0,1,1,0
20718,'1',1,9,1,4.737,1.949,0.0,0.0,0.0,0.0,1,1,0
20719,'1',1,9,1,10.508,3.129,0.0,0.0,0.0,0.0,1,1,0
20723,'1',1,9,1,16.425,5.386,0.0,0.0,0.0,0.0,1,1,0
20730,'1',1,9,1,5.908,2.856,0.0,0.0,0.0,0.0,1,1,0
20731,'1',1,9,1,8.225,3.292,0.0,0.0,0.0,0.0,1,1,0
20748,'1',1,9,1,100.0,0.0,0.0,0.0,0.0,0.0,1,1,0
20759,'1',1,9,1,1.77,0.744,0.0,0.0,0.0,0.0,1,1,0
20760,'1',1,9,1,8.926,3.89,0.0,0.0,0.0,0.0,1,1,0
20764,'1',1,9,1,8.499,3.309,0.0,0.0,0.0,0.0,1,1,0
20769,'1',1,9,1,29.147,10.44,0.0,0.0,0.0,0.0,1,1,0
20771,'1',1,9,1,4.805,2.317,0.0,0.0,0.0,0.0,1,1,0
20772,'1',1,9,1,8.926,2.839,0.0,0.0,0.0,0.0,1,1,0
20775,'1',1,9,1,6.053,2.642,0.0,0.0,0.0,0.0,1,1,0
20776,'1',1,9,1,23.23,5.54,0.0,0.0,0.0,0.0,1,1,0
20777,'1',1,9,1,19.323,7.208,0.0,0.0,0.0,0.0,1,1,0
20778,'1',1,9,1,13.612,4.48,0.0,0.0,0.0,0.0,1,1,0
20779,'1',1,9,1,5.438,2.625,0.0,0.0,0.0,0.0,1,1,0
20780,'1',1,9,1,8.55,3.044,0.0,0.0,0.0,0.0,1,1,0
20781,'1',1,9,1,6.524,2.266,0.0,0.0,0.0,0.0,1,1,0
20783,'1',1,9,1,15.304,6.755,0.0,0.0,0.0,0.0,1,1,0
20785,'1',1,9,1,62.483,15.544,0.0,0.0,0.0,0.0,1,1,0
20795,'1',1,9,1,16.997,6.515,0.0,0.0,0.0,0.0,1,1,0
20798,'1',1,9,1,6.147,2.172,0.0,0.0,0.0,0.0,1,1,0
20799,'1',1,9,1,4.874,2.368,0.0,0.0,0.0,0.0,1,1,0
20811,'1',1,9,1,4.318,1.915,0.0,0.0,0.0,0.0,1,1,0
20812,'1',1,9,1,67.776,17.331,0.0,0.0,0.0,0.0,1,1,0
20817,'1',1,9,1,18.186,4.549,0.0,0.0,0.0,0.0,1,1,0
20818,'1',1,9,1,66.442,16.613,0.0,0.0,0.0,0.0,1,1,0
20822,'1',1,9,1,55.746,11.428,0.0,0.0,0.0,0.0,1,1,0
20823,'1',1,9,1,11.055,2.762,0.0,0.0,0.0,0.0,1,1,0
20826,'1',1,9,1,7.635,2.232,0.0,0.0,0.0,0.0,1,1,0
20830,'1',1,9,1,8.063,3.446,0.0,0.0,0.0,0.0,1,1,0
20836,'1',1,9,1,3.745,1.778,0.0,0.0,0.0,0.0,1,1,0
20844,'1',1,9,1,9.55,3.6,0.0,0.0,0.0,0.0,1,1,0
20849,'1',1,9,1,6.541,2.608,0.0,0.0,0.0,0.0,1,1,0
20855,'1',1,9,1,31.738,6.37,0.0,0.0,0.0,0.0,1,1,0
20858,'1',1,9,1,19.562,5.617,0.0,0.0,0.0,0.0,1,1,0
20864,'1',1,9,1,37.355,9.337,0.0,0.0,0.0,0.0,1,1,0
20866,'1',1,9,1,11.662,2.916,0.0,0.0,0.0,0.0,1,1,0
20867,'1',1,9,1,8.362,2.086,0.0,0.0,0.0,0.0,1,1,0
20868,'1',1,9,1,8.815,2.206,0.0,0.0,0.0,0.0,1,1,0
20870,'1',1,9,1,55.917,13.979,0.0,0.0,0.0,0.0,1,1,0
20872,'1',1,9,1,90.733,22.683,0.0,0.0,0.0,0.0,1,1,0
20874,'1',1,9,1,41.596,10.397,0.0,0.0,0.0,0.0,1,1,0
20876,'1',1,9,1,24.94,6.233,0.0,0.0,0.0,0.0,1,1,0
20877,'1',1,9,1,32.635,10.722,0.0,0.0,0.0,0.0,1,1,0
20879,'1',1,9,1,56.883,15.287,0.0,0.0,0.0,0.0,1,1,0
20880,'1',1,9,1,26.573,8.037,0.0,0.0,0.0,0.0,1,1,0
20884,'1',1,9,1,22.239,7.302,0.0,0.0,0.0,0.0,1,1,0
20885,'1',1,9,1,43.289,12.834,0.0,0.0,0.0,0.0,1,1,0
20887,'1',1,9,1,74.009,18.776,0.0,0.0,0.0,0.0,1,1,0
20889,'1',1,9,1,12.979,5.275,0.0,0.0,0.0,0.0,1,1,0
20891,'1',1,9,1,6.088,2.916,0.0,0.0,0.0,0.0,1,1,0
20897,'1',1,9,1,19.494,6.857,0.0,0.0,0.0,0.0,1,1,0
20901,'1',1,9,1,4.882,2.223,0.0,0.0,0.0,0.0,1,1,0
20906,'1',1,9,1,3.608,1.616,0.0,0.0,0.0,0.0,1,1,0
20908,'1',1,9,1,6.259,2.556,0.0,0.0,0.0,0.0,1,1,0
20914,'1',1,9,1,12.637,4.412,0.0,0.0,0.0,0.0,1,1,0
20915,'1',1,9,1,14.749,3.762,0.0,0.0,0.0,0.0,1,1,0
20920,'1',1,9,1,60.833,14.458,0.0,0.0,0.0,0.0,1,1,0
20927,'1',1,9,1,4.925,2.368,0.0,0.0,0.0,0.0,1,1,0
20938,'1',1,9,1,7.575,2.565,0.0,0.0,0.0,0.0,1,1,0
20939,'1',1,9,1,7.524,2.813,0.0,0.0,0.0,0.0,1,1,0
20944,'1',1,9,1,5.121,2.42,0.0,0.0,0.0,0.0,1,1,0
20945,'1',1,9,1,11.799,3.933,0.0,0.0,0.0,0.0,1,1,0
20961,'1',1,9,1,13.338,4.429,0.0,0.0,0.0,0.0,1,1,0
20963,'1',1,9,1,13.689,3.42,0.0,0.0,0.0,0.0,1,1,0
20964,'1',1,9,1,7.49,2.736,0.0,0.0,0.0,0.0,1,1,0
20965,'1',1,9,1,7.362,2.625,0.0,0.0,0.0,0.0,1,1,0
20969,'1',1,9,1,4.66,1.949,0.0,0.0,0.0,0.0,1,1,0
20970,'1',1,9,1,2.394,1.111,0.0,0.0,0.0,0.0,1,1,0
20974,'1',1,9,1,12.492,5.386,0.0,0.0,0.0,0.0,1,1,0
20975,'1',1,9,1,9.294,4.138,0.0,0.0,0.0,0.0,1,1,0
20979,'1',1,9,1,5.523,2.223,0.0,0.0,0.0,0.0,1,1,0
20980,'1',1,9,1,7.438,3.634,0.0,0.0,0.0,0.0,1,1,0
20981,'1',1,9,1,28.702,10.157,0.0,0.0,0.0,0.0,1,1,0
20983,'1',1,9,1,22.863,9.431,0.0,0.0,0.0,0.0,1,1,0
20984,'1',1,9,1,6.549,2.762,0.0,0.0,0.0,0.0,1,1,0
20986,'1',1,9,1,5.455,2.539,0.0,0.0,0.0,0.0,1,1,0
20987,'1',1,9,1,9.944,4.301,0.0,0.0,0.0,0.0,1,1,0
20988,'1',1,9,1,32.31,10.132,0.0,0.0,0.0,0.0,1,1,0
20989,'1',1,9,1,16.544,6.318,0.0,0.0,0.0,0.0,1,1,0
20991,'1',1,9,1,16.031,6.079,0.0,0.0,0.0,0.0,1,1,0
20994,'1',1,9,1,22.068,8.071,0.0,0.0,0.0,0.0,1,1,0
20995,'1',1,9,1,14.963,6.507,0.0,0.0,0.0,0.0,1,1,0
20997,'1',1,9,1,7.695,3.454,0.0,0.0,0.0,0.0,1,1,0
20999,'1',1,9,1,6.079,2.266,0.0,0.0,0.0,0.0,1,1,0
21000,'1',1,9,1,6.344,2.574,0.0,0.0,0.0,0.0,1,1,0
21004,'1',1,9,1,15.262,6.105,0.0,0.0,0.0,0.0,1,1,0
21025,'1',1,9,1,26.779,6.823,0.0,0.0,0.0,0.0,1,1,0
21026,'1',1,9,1,7.293,3.386,0.0,0.0,0.0,0.0,1,1,0
21041,'1',1,9,1,74.094,20.452,0.0,0.0,0.0,0.0,1,1,0
21042,'1',1,9,1,13.116,4.626,0.0,0.0,0.0,0.0,1,1,0
21044,'1',1,9,1,3.497,1.565,0.0,0.0,0.0,0.0,1,1,0
21045,'1',1,9,1,10.328,4.326,0.0,0.0,0.0,0.0,1,1,0
21051,'1',1,9,1,11.611,4.172,0.0,0.0,0.0,0.0,1,1,0
21052,'1',1,9,1,8.336,3.206,0.0,0.0,0.0,0.0,1,1,0
21065,'1',1,9,1,5.617,2.471,0.0,0.0,0.0,0.0,1,1,0
21066,'1',1,9,1,3.249,1.368,0.0,0.0,0.0,0.0,1,1,0
21074,'1',1,9,1,19.503,4.677,0.0,0.0,0.0,0.0,1,1,0
21075,'1',1,9,1,4.087,1.83,0.0,0.0,0.0,0.0,1,1,0
21078,'1',1,9,1,9.508,3.582,0.0,0.0,0.0,0.0,1,1,0
21083,'1',1,9,1,20.836,5.207,0.0,0.0,0.0,0.0,1,1,0
21084,'1',1,9,1,12.389,3.095,0.0,0.0,0.0,0.0,1,1,0
21086,'1',1,9,1,75.06,18.767,0.0,0.0,0.0,0.0,1,1,0
21087,'1',1,9,1,14.219,3.557,0.0,0.0,0.0,0.0,1,1,0
21090,'1',1,9,1,8.995,2.249,0.0,0.0,0.0,0.0,1,1,0
21091,'1',1,9,1,65.074,19.87,0.0,0.0,0.0,0.0,1,1,0
21092,'1',1,9,1,50.924,13.518,0.0,0.0,0.0,0.0,1,1,0
21099,'1',1,9,1,12.637,4.626,0.0,0.0,0.0,0.0,1,1,0
21105,'1',1,9,1,8.234,3.309,0.0,0.0,0.0,0.0,1,1,0
21115,'1',1,9,1,23.025,6.199,0.0,0.0,0.0,0.0,1,1,0
21118,'1',1,9,1,9.756,3.676,0.0,0.0,0.0,0.0,1,1,0
21119,'1',1,9,1,9.345,3.523,0.0,0.0,0.0,0.0,1,1,0
21121,'1',1,9,1,23.034,5.968,0.0,0.0,0.0,0.0,1,1,0
21123,'1',1,9,1,20.383,7.669,0.0,0.0,0.0,0.0,1,1,0
21133,'1',1,9,1,8.832,3.822,0.0,0.0,0.0,0.0,1,1,0
21135,'1',1,9,1,5.147,2.582,0.0,0.0,0.0,0.0,1,1,0
21137,'1',1,9,1,7.139,3.317,0.0,0.0,0.0,0.0,1,1,0
21138,'1',1,9,1,11.893,4.882,0.0,0.0,0.0,0.0,1,1,0
21139,'1',1,9,1,11.038,4.369,0.0,0.0,0.0,0.0,1,1,0
21140,'1',1,9,1,7.738,3.198,0.0,0.0,0.0,0.0,1,1,0
21141,'1',1,9,1,12.816,5.087,0.0,0.0,0.0,0.0,1,1,0
21142,'1',1,9,1,10.97,3.12,0.0,0.0,0.0,0.0,1,1,0
21146,'1',1,9,1,75.168,15.87,0.0,0.0,0.0,0.0,1,1,0
21147,'1',1,9,1,7.096,1.58,0.0,0.0,0.0,0.0,1,1,0
21148,'1',1,9,1,17.69,5.489,0.0,0.0,0.0,0.0,1,1,0
21151,'1',1,9,1,3.591,1.71,0.0,0.0,0.0,0.0,1,1,0
21160,'1',1,9,1,24.248,7.293,0.0,0.0,0.0,0.0,1,1,0
21162,'1',1,9,1,59.106,14.774,0.0,0.0,0.0,0.0,1,1,0
21170,'1',1,9,1,90.339,22.581,0.0,0.0,0.0,0.0,1,1,0
21171,'1',1,9,1,10.055,2.514,0.0,0.0,0.0,0.0,1,1,0
21173,'1',1,9,1,55.472,13.868,0.0,0.0,0.0,0.0,1,1,0
21175,'1',1,9,1,5.805,1.453,0.0,0.0,0.0,0.0,1,1,0
21177,'1',1,9,1,18.733,4.685,0.0,0.0,0.0,0.0,1,1,0
21195,'1',1,9,1,1.035,0.436,0.0,0.0,0.0,0.0,1,1,0
21218,'1',1,9,1,57.764,11.277,0.0,0.0,0.0,0.0,1,1,0
21221,'1',1,9,1,4.309,1.941,0.0,0.0,0.0,0.0,1,1,0
21224,'1',1,9,1,48.82,13.586,0.0,0.0,0.0,0.0,1,1,0
21225,'1',1,9,1,68.041,21.187,0.0,0.0,0.0,0.0,1,1,0
21240,'1',1,9,1,17.168,5.925,0.0,0.0,0.0,0.0,1,1,0
21242,'1',1,9,1,45.156,12.0,0.0,0.0,0.0,0.0,1,1,0
21252,'1',1,9,1,5.318,2.317,0.0,0.0,0.0,0.0,1,1,0
21253,'1',1,9,1,9.089,3.753,0.0,0.0,0.0,0.0,1,1,0
21279,'1',1,9,1,10.747,4.138,0.0,0.0,0.0,0.0,1,1,0
21281,'1',1,9,1,10.687,3.976,0.0,0.0,0.0,0.0,1,1,0
21288,'1',1,9,1,10.431,3.565,0.0,0.0,0.0,0.0,1,1,0
21294,'1',1,9,1,9.362,3.873,0.0,0.0,0.0,0.0,1,1,0
21296,'1',1,9,1,3.104,1.573,0.0,0.0,0.0,0.0,1,1,0
21298,'1',1,9,1,3.702,1.83,0.0,0.0,0.0,0.0,1,1,0
21301,'1',1,9,1,17.22,5.062,0.0,0.0,0.0,0.0,1,1,0
21307,'1',1,9,1,4.459,1.937,0.0,0.0,0.0,0.0,1,1,0
21308,'1',1,9,1,1.855,0.718,0.0,0.0,0.0,0.0,1,1,0
21309,'1',1,9,1,9.161,2.74,0.0,0.0,0.0,0.0,1,1,0
21312,'1',1,9,1,12.812,3.223,0.0,0.0,0.0,0.0,1,1,0
21316,'1',1,9,1,6.917,2.407,0.0,0.0,0.0,0.0,1,1,0
21317,'1',1,9,1,7.618,2.595,0.0,0.0,0.0,0.0,1,1,0
21321,'1',1,9,1,14.031,5.361,0.0,0.0,0.0,0.0,1,1,0
21329,'1',1,9,1,48.564,12.312,0.0,0.0,0.0,0.0,1,1,0
21332,'1',1,9,1,23.525,5.361,0.0,0.0,0.0,0.0,1,1,0
21346,'1',1,9,1,3.129,1.394,0.0,0.0,0.0,0.0,1,1,0
21347,'1',1,9,1,2.975,1.257,0.0,0.0,0.0,0.0,1,1,0
21349,'1',1,9,1,8.405,3.591,0.0,0.0,0.0,0.0,1,1,0
21351,'1',1,9,1,6.977,3.01,0.0,0.0,0.0,0.0,1,1,0
21352,'1',1,9,1,12.457,4.574,0.0,0.0,0.0,0.0,1,1,0
21356,'1',1,9,1,13.646,5.053,0.0,0.0,0.0,0.0,1,1,0
21357,'1',1,9,1,8.02,3.873,0.0,0.0,0.0,0.0,1,1,0
21358,'1',1,9,1,12.192,3.326,0.0,0.0,0.0,0.0,1,1,0
21360,'1',1,9,1,12.474,4.412,0.0,0.0,0.0,0.0,1,1,0
21361,'1',1,9,1,7.909,2.454,0.0,0.0,0.0,0.0,1,1,0
21364,'1',1,9,1,12.74,4.771,0.0,0.0,0.0,0.0,1,1,0
21365,'1',1,9,1,3.488,1.368,0.0,0.0,0.0,0.0,1,1,0
21369,'1',1,9,1,20.187,5.463,0.0,0.0,0.0,0.0,1,1,0
21370,'1',1,9,1,7.216,3.531,0.0,0.0,0.0,0.0,1,1,0
21371,'1',1,9,1,3.095,1.411,0.0,0.0,0.0,0.0,1,1,0
21372,'1',1,9,1,5.968,2.505,0.0,0.0,0.0,0.0,1,1,0
21373,'1',1,9,1,19.648,6.755,0.0,0.0,0.0,0.0,1,1,0
21375,'1',1,9,1,13.287,4.762,0.0,0.0,0.0,0.0,1,1,0
21376,'1',1,9,1,4.891,1.847,0.0,0.0,0.0,0.0,1,1,0
21377,'1',1,9,1,8.764,4.061,0.0,0.0,0.0,0.0,1,1,0
21378,'1',1,9,1,3.796,1.317,0.0,0.0,0.0,0.0,1,1,0
21379,'1',1,9,1,8.67,2.642,0.0,0.0,0.0,0.0,1,1,0
21385,'1',1,9,1,3.112,1.505,0.0,0.0,0.0,0.0,1,1,0
...
0 / END OF LOAD DATA BEGIN FIXED SHUNT DATA
20416,'69',1,14.21,-13.6
20421,'69',1,28.64,0.0
20422,'69',1,75.92,0.0
20429,'69',1,12.43,-7.68
20435,'69',1,23.91,-10.53
20439,'69',1,28.79,-11.53
20444,'69',1,20.15,0.03
20445,'69',1,31.57,44.0
20446,'69',1,4.84,-5.96
20448,'69',1,17.83,30.0
20460,'69',1,23.02,0.0
20472,'69',1,25.39,-22.83
20483,'69',1,8.11,0.0
20494,'69',1,33.0,0.0
20495,'69',1,17.29,6.65
20499,'69',1,16.82,-0.96
20501,'69',1,10.08,5.97
20502,'69',1,20.92,0.0
20508,'69',1,2.86,4.37
20525,'69',1,5.45,-1.99
20526,'69',1,5.91,4.25
20527,'69',1,0.43,-4.04
20578,'69',1,2.93,-4.21
20584,'69',1,10.06,0.0
20597,'69',1,13.57,-5.88
20598,'69',1,21.01,-8.93
20600,'69',1,22.9,-3.85
20601,'69',1,16.34,-4.65
20616,'69',1,45.68,-16.12
20617,'69',1,38.53,-13.14
20618,'69',1,9.87,-2.99
20623,'69',1,11.37,-3.38
20627,'69',1,26.63,-7.54
20629,'69',1,30.67,-9.73
20639,'69',1,11.57,-4.28
20642,'69',1,41.64,-14.66
20643,'69',1,10.15,0.0
20644,'69',1,5.46,0.0
20650,'69',1,28.9,-9.77
20652,'69',1,30.84,-6.94
20655,'69',1,11.87,-3.68
20656,'69',1,5.5,-2.25
20660,'69',1,7.94,-2.54
20662,'69',1,30.61,-9.79
20671,'69',1,64.2,-21.31
20672,'69',1,13.63,-6.12
20678,'69',1,18.04,-4.55
20680,'69',1,22.41,-4.24
20681,'69',1,48.03,-14.02
20686,'69',1,30.56,-7.53
20690,'69',1,56.59,-14.64
20699,'69',1,14.38,-6.72
20700,'69',1,5.76,-7.3
20706,'69',1,21.49,-9.21
20716,'69',1,11.13,-10.7
20726,'69',1,19.27,-7.21
20728,'69',1,21.96,-6.15
20736,'69',1,17.54,-2.88
20741,'69',1,10.1,-3.69
20744,'69',1,25.35,3.79
20761,'69',1,12.61,-5.09
20762,'69',1,42.12,-13.89
20767,'69',1,18.13,-10.02
20770,'69',1,17.24,-1.55
20786,'69',1,8.13,-4.51
20787,'69',1,8.82,-4.01
20788,'69',1,7.5,-3.84
20790,'69',1,11.42,1.47
20797,'69',1,37.59,-1.93
20806,'69',1,35.05,-10.08
20808,'69',1,41.34,-7.41
20810,'69',1,10.32,-9.79
20812,'69',1,6.38,-2.49
20815,'69',1,21.36,-8.2
20816,'69',1,15.9,0.0
20818,'69',1,12.85,-8.29
20824,'69',1,30.5,-12.56
20828,'69',1,12.92,-3.96
20833,'69',1,12.77,-3.01
20835,'69',1,9.37,-3.99
20840,'69',1,9.68,-3.38
20850,'69',1,26.48,-10.88
20851,'69',1,8.67,-4.41
20854,'69',1,5.58,-3.24
20859,'69',1,41.6,-8.17
20862,'69',1,17.5,0.0
20865,'69',1,77.03,-15.18
20871,'69',1,11.91,0.0
20879,'69',1,18.02,-3.9
20881,'69',1,7.19,-1.99
20883,'69',1,26.64,-6.71
20887,'69',1,32.22,-5.29
20892,'69',1,21.16,-9.46
20894,'69',1,34.66,-12.44
20899,'69',1,11.65,-8.53
20900,'69',1,28.0,-10.25
20902,'69',1,28.52,-9.18
20903,'69',1,20.0,2.14
20904,'69',1,2.43,-5.55
20907,'69',1,9.08,-4.62
20909,'69',1,19.04,-10.93
20912,'69',1,9.73,-6.8
20918,'69',1,7.87,-5.35
20919,'69',1,5.36,-1.78
20920,'69',1,0.67,-0.57
20921,'69',1,43.85,-6.36
20924,'69',1,25.2,-7.33
20926,'69',1,26.19,-14.6
20931,'69',1,44.35,-11.56
20936,'69',1,11.35,-4.72
20943,'69',1,39.42,-15.33
20946,'69',1,63.47,-6.39
20949,'69',1,41.75,-12.34
20952,'69',1,18.87,-6.05
20958,'69',1,32.89,-6.44
20978,'69',1,15.28,-9.19
21009,'69',1,7.71,-5.83
21011,'69',1,15.95,-8.58
21015,'69',1,11.7,0.41
21035,'69',1,15.17,-4.44
21036,'69',1,18.2,-3.97
21038,'69',1,18.23,-12.59
21040,'69',1,23.02,-17.05
21041,'69',1,7.89,-12.22
21059,'69',1,25.06,-5.88
21064,'69',1,14.48,-4.4
21069,'69',1,12.68,-5.57
21077,'69',1,22.72,-7.04
21085,'69',1,48.18,-9.48
21092,'69',1,0.11,-1.19
21094,'69',1,4.23,-1.7
21096,'69',1,11.34,-2.52
21097,'69',1,15.57,-7.6
21098,'69',1,36.59,-6.68
21101,'69',1,13.62,3.07
21102,'69',1,8.21,3.6
21104,'69',1,1.98,2.21
21112,'69',1,19.15,-4.03
21116,'69',1,25.28,0.38
21126,'69',1,52.58,-11.68
21128,'69',1,25.54,-6.59
21129,'69',1,19.6,-8.33
21152,'69',1,21.98,-16.35
21156,'69',1,50.29,2.53
21162,'69',1,13.03,-1.41
21163,'69',1,31.96,-6.41
21169,'69',1,23.9,-8.31
21170,'69',1,25.02,-1.51
21172,'69',1,22.5,-7.75
21174,'69',1,19.21,-6.13
21179,'69',1,25.68,-4.21
21181,'69',1,20.34,0.0
21183,'69',1,11.22,0.0
21184,'69',1,18.46,0.0
21194,'69',1,23.82,-12.09
21196,'69',1,21.21,-14.14
21202,'69',1,10.87,-4.25
21203,'69',1,25.14,-11.33
21204,'69',1,7.9,-2.11
21216,'69',1,13.65,-7.98
21218,'69',1,4.31,-2.03
21220,'69',1,24.33,-14.64
21224,'69',1,16.79,-8.47
21225,'69',1,14.23,-4.81
21226,'69',1,21.17,-11.7
21241,'69',1,24.32,-7.05
21242,'69',1,9.69,-5.03
21250,'69',1,17.83,-5.65
21254,'69',1,20.35,-8.25
21264,'69',1,21.48,-1.52
21274,'69',1,17.76,-3.82
21275,'69',1,21.88,-5.98
21276,'69',1,15.07,-2.73
21280,'69',1,24.82,-7.72
21287,'69',1,21.73,-9.62
21290,'69',1,14.38,-8.85
21292,'69',1,19.22,-2.67
21297,'69',1,22.02,-8.39
21300,'69',1,28.33,-1.3
21302,'69',1,31.62,-12.01
21315,'69',1,10.07,-5.94
21327,'69',1,21.42,-12.04
21328,'69',1,33.79,-17.94
21334,'69',1,13.13,-7.18
21335,'69',1,46.99,0.53
21343,'69',1,4.61,-2.17
21345,'69',1,13.52,-7.96
21348,'69',1,17.43,5.0
21353,'69',1,16.06,-4.66
21359,'69',1,16.04,-1.0
21362,'69',1,28.18,-7.06
21363,'69',1,13.05,-5.61
21367,'69',1,4.87,-1.6
21368,'69',1,6.38,-5.36
21374,'69',1,11.32,5.14
21383,'69',1,13.32,-8.98
21388,'69',1,17.11,-5.91
21389,'69',1,26.74,-13.82
21393,'69',1,8.73,-2.82
21396,'69',1,17.53,-7.22
...
0 / END OF FIXED SHUNT DATA BEGIN GENERATOR DATA
20401,'1',1244.198,143.919,629.6,-433.3,1.02,0,100.0,0.0,1.0,0.0,0.0,1.0,1,100.0,1300.0,500.0,1,1.0,0,1.0,0,1.0,0,1.0,0,1.0
20401,'2',512.642,143.919,629.6,-433.3,1.02,0,100.0,0.0,1.0,0.0,0.0,1.0,1,100.0,1300.0,500.0,1,1.0,0,1.0,0,1.0,0,1.0,0,1.0
20403,'1',20.611,40.2,40.2,-23.3,1.02,0,100.0,0.0,1.0,0.0,0.0,1.0,1,100.0,70.0,19.95,1,1.0,0,1.0,0,1.0,0,1.0,0,1.0
20403,'2',20.611,40.2,40.2,-23.3,1.02,0,100.0,0.0,1.0,0.0,0.0,1.0,1,100.0,70.0,19.95,1,1.0,0,1.0,0,1.0,0,1.0,0,1.0
20403,'3',466.026,261.5,261.5,-180.0,1.02,0,100.0,0.0,1.0,0.0,0.0,1.0,1,100.0,540.0,310.0,1,1.0,0,1.0,0,1.0,0,1.0,0,1.0
20405,'1',58.476,34.469,54.5,-37.5,1.02,0,100.0,0.0,1.0,0.0,0.0,1.0,1,100.0,112.5,55.0,1,1.0,0,1.0,0,1.0,0,1.0,0,1.0
20405,'2',508.207,34.469,257.2,-177.0,1.02,0,100.0,0.0,1.0,0.0,0.0,1.0,1,100.0,531.0,300.0,1,1.0,0,1.0,0,1.0,0,1.0,0,1.0
20405,'3',508.207,34.469,257.2,-177.0,1.02,0,100.0,0.0,1.0,0.0,0.0,1.0,1,100.0,531.0,230.0,1,1.0,0,1.0,0,1.0,0,1.0,0,1.0
20407,'1',12.946,16.946,54.7,-29.4,1.02,0,100.0,0.0,1.0,0.0,0.0,1.0,1,100.0,88.2,10.0,1,1.0,0,1.0,0,1.0,0,1.0,0,1.0
20407,'2',12.946,16.946,54.7,-29.4,1.02,0,100.0,0.0,1.0,0.0,0.0,1.0,1,100.0,88.2,10.0,1,1.0,0,1.0,0,1.0,0,1.0,0,1.0
20407,'3',128.852,16.946,128.4,-88.4,1.02,0,100.0,0.0,1.0,0.0,0.0,1.0,1,100.0,265.2,120.0,1,1.0,0,1.0,0,1.0,0,1.0,0,1.0
20407,'4',128.852,16.946,128.4,-88.4,1.02,0,100.0,0.0,1.0,0.0,0.0,1.0,1,100.0,265.2,120.0,1,1.0,0,1.0,0,1.0,0,1.0,0,1.0
20408,'1',167.318,36.365,146.0,-72.4,1.02,0,100.0,0.0,1.0,0.0,0.0,1.0,1,100.0,217.3,163.0,1,1.0,0,1.0,0,1.0,0,1.0,0,1.0
20408,'2',167.318,36.365,146.0,-72.4,1.02,0,100.0,0.0,1.0,0.0,0.0,1.0,1,100.0,217.3,163.0,1,1.0,0,1.0,0,1.0,0,1.0,0,1.0
20408,'3',167.318,36.365,146.0,-72.4,1.02,0,100.0,0.0,1.0,0.0,0.0,1.0,1,100.0,217.3,163.0,1,1.0,0,1.0,0,1.0,0,1.0,0,1.0
20408,'4',167.318,36.365,146.0,-72.4,1.02,0,100.0,0.0,1.0,0.0,0.0,1.0,1,100.0,217.3,163.0,1,1.0,0,1.0,0,1.0,0,1.0,0,1.0
20408,'5',167.318,36.365,146.0,-72.4,1.02,0,100.0,0.0,1.0,0.0,0.0,1.0,1,100.0,217.3,163.0,1,1.0,0,1.0,0,1.0,0,1.0,0,1.0
20408,'6',167.318,36.365,146.0,-72.4,1.02,0,100.0,0.0,1.0,0.0,0.0,1.0,1,100.0,217.3,163.0,1,1.0,0,1.0,0,1.0,0,1.0,0,1.0
20409,'1',111.92,96.261,125.9,-67.7,1.02,0,100.0,0.0,1.0,0.0,0.0,1.0,1,100.0,203.2,110.0,1,1.0,0,1.0,0,1.0,0,1.0,0,1.0
20409,'2',111.92,96.261,125.9,-67.7,1.02,0,100.0,0.0,1.0,0.0,0.0,1.0,1,100.0,203.2,110.0,1,1.0,0,1.0,0,1.0,0,1.0,0,1.0
20409,'3',112.013,96.261,132.0,-71.0,1.02,0,100.0,0.0,1.0,0.0,0.0,1.0,1,100.0,213.0,110.0,1,1.0,0,1.0,0,1.0,0,1.0,0,1.0
20410,'1',99.0,96.7,96.7,-66.6,1.02,0,100.0,0.0,1.0,0.0,0.0,1.0,1,100.0,199.7,0.0,1,1.0,0,1.0,0,1.0,0,1.0,1,1.0
20411,'1',106.355,110.946,118.0,-63.5,1.02,0,100.0,0.0,1.0,0.0,0.0,1.0,1,100.0,190.4,100.0,1,1.0,0,1.0,0,1.0,0,1.0,0,1.0
20411,'2',35.155,23.2,23.2,-12.5,1.02,0,100.0,0.0,1.0,0.0,0.0,1.0,1,100.0,37.5,20.0,1,1.0,0,1.0,0,1.0,0,1.0,0,1.0
20411,'3',347.96,110.946,256.0,-137.7,1.02,0,100.0,0.0,1.0,0.0,0.0,1.0,1,100.0,413.1,150.0,1,1.0,0,1.0,0,1.0,0,1.0,0,1.0
20412,'1',115.604,69.301,112.7,-60.6,1.02,0,100.0,0.0,1.0,0.0,0.0,1.0,1,100.0,181.9,92.0,1,1.0,0,1.0,0,1.0,0,1.0,0,1.0
20412,'2',115.604,69.301,112.7,-60.6,1.02,0,100.0,0.0,1.0,0.0,0.0,1.0,1,100.0,181.9,92.0,1,1.0,0,1.0,0,1.0,0,1.0,0,1.0
20412,'3',29.232,69.301,103.2,-71.0,1.02,0,100.0,0.0,1.0,0.0,0.0,1.0,1,100.0,213.0,25.0,1,1.0,0,1.0,0,1.0,0,1.0,0,1.0
20414,'1',95.708,62.0,62.0,-33.3,1.02,0,100.0,0.0,1.0,0.0,0.0,1.0,1,100.0,100.0,54.0,1,1.0,0,1.0,0,1.0,0,1.0,0,1.0
20414,'10',6.115,17.65,17.65,-9.35,1.02,0,100.0,0.0,1.0,0.0,0.0,1.0,1,100.0,28.05,5.85,1,1.0,0,1.0,0,1.0,0,1.0,0,1.0
20414,'11',6.115,17.65,17.65,-9.35,1.02,0,100.0,0.0,1.0,0.0,0.0,1.0,1,100.0,28.05,5.85,1,1.0,0,1.0,0,1.0,0,1.0,0,1.0
20414,'12',443.126,286.9,286.9,-154.3,1.02,0,100.0,0.0,1.0,0.0,0.0,1.0,1,100.0,463.0,220.0,1,1.0,0,1.0,0,1.0,0,1.0,0,1.0
20414,'2',95.708,62.0,62.0,-33.3,1.02,0,100.0,0.0,1.0,0.0,0.0,1.0,1,100.0,100.0,54.0,1,1.0,0,1.0,0,1.0,0,1.0,0,1.0
20414,'3',69.449,62.3,62.3,-27.7,1.02,0,100.0,0.0,1.0,0.0,0.0,1.0,1,100.0,83.0,45.0,1,1.0,0,1.0,0,1.0,0,1.0,0,1.0
20414,'4',69.449,62.3,62.3,-27.7,1.02,0,100.0,0.0,1.0,0.0,0.0,1.0,1,100.0,83.0,45.0,1,1.0,0,1.0,0,1.0,0,1.0,0,1.0
20414,'5',91.521,99.8,99.8,-53.7,1.02,0,100.0,0.0,1.0,0.0,0.0,1.0,1,100.0,161.0,90.0,1,1.0,0,1.0,0,1.0,0,1.0,0,1.0
20414,'6',6.115,17.65,17.65,-9.35,1.02,0,100.0,0.0,1.0,0.0,0.0,1.0,1,100.0,28.05,5.85,1,1.0,0,1.0,0,1.0,0,1.0,0,1.0
20414,'7',6.115,17.65,17.65,-9.35,1.02,0,100.0,0.0,1.0,0.0,0.0,1.0,1,100.0,28.05,5.85,1,1.0,0,1.0,0,1.0,0,1.0,0,1.0
20414,'8',6.115,17.65,17.65,-9.35,1.02,0,100.0,0.0,1.0,0.0,0.0,1.0,1,100.0,28.05,5.85,1,1.0,0,1.0,0,1.0,0,1.0,0,1.0
20414,'9',6.115,17.65,17.65,-9.35,1.02,0,100.0,0.0,1.0,0.0,0.0,1.0,1,100.0,28.05,5.85,1,1.0,0,1.0,0,1.0,0,1.0,0,1.0
20415,'1',45.566,10.746,103.2,-55.5,1.02,0,100.0,0.0,1.0,0.0,0.0,1.0,1,100.0,166.6,40.0,1,1.0,0,1.0,0,1.0,0,1.0,0,1.0
20415,'2',45.566,10.746,103.2,-55.5,1.02,0,100.0,0.0,1.0,0.0,0.0,1.0,1,100.0,166.6,40.0,1,1.0,0,1.0,0,1.0,0,1.0,0,1.0
20415,'3',45.566,10.746,103.2,-55.5,1.02,0,100.0,0.0,1.0,0.0,0.0,1.0,1,100.0,166.6,40.0,1,1.0,0,1.0,0,1.0,0,1.0,0,1.0
20415,'4',139.386,10.746,200.2,-107.7,1.02,0,100.0,0.0,1.0,0.0,0.0,1.0,1,100.0,323.0,80.0,1,1.0,0,1.0,0,1.0,0,1.0,0,1.0
20416,'1',51.521,78.0,78.0,-53.7,1.02,0,100.0,0.0,1.0,0.0,0.0,1.0,1,100.0,161.0,50.0,1,1.0,0,1.0,0,1.0,0,1.0,0,1.0
20418,'1',2.52,15.402,18.1,-18.1,1.02,0,100.0,0.0,1.0,0.0,0.0,1.0,1,100.0,55.0,2.0,1,1.0,0,1.0,0,1.0,0,1.0,0,1.0
20418,'2',2.687,15.402,16.58,-10.14,1.02,0,100.0,0.0,1.0,0.0,0.0,1.0,1,100.0,30.4,2.4,1,1.0,0,1.0,0,1.0,0,1.0,0,1.0
20418,'3',2.687,15.402,16.58,-10.14,1.02,0,100.0,0.0,1.0,0.0,0.0,1.0,1,100.0,30.4,2.4,1,1.0,0,1.0,0,1.0,0,1.0,0,1.0
20418,'4',2.687,15.402,16.58,-10.14,1.02,0,100.0,0.0,1.0,0.0,0.0,1.0,1,100.0,30.4,2.4,1,1.0,0,1.0,0,1.0,0,1.0,0,1.0
20418,'5',2.687,15.402,16.58,-10.14,1.02,0,100.0,0.0,1.0,0.0,0.0,1.0,1,100.0,30.4,2.4,1,1.0,0,1.0,0,1.0,0,1.0,0,1.0
20418,'6',2.687,15.402,16.58,-10.14,1.02,0,100.0,0.0,1.0,0.0,0.0,1.0,1,100.0,30.4,2.4,1,1.0,0,1.0,0,1.0,0,1.0,0,1.0
20418,'7',4.378,15.402,24.8,-13.3,1.02,0,100.0,0.0,1.0,0.0,0.0,1.0,1,100.0,40.0,4.0,1,1.0,0,1.0,0,1.0,0,1.0,0,1.0
20418,'8',2.302,15.402,19.8,-10.7,1.02,0,100.0,0.0,1.0,0.0,0.0,1.0,1,100.0,32.0,2.0,1,1.0,0,1.0,0,1.0,0,1.0,0,1.0
20419,'1',76.021,93.0,93.0,-50.0,1.02,0,100.0,0.0,1.0,0.0,0.0,1.0,1,100.0,150.0,65.0,1,1.0,0,1.0,0,1.0,0,1.0,0,1.0
20419,'2',84.521,93.0,93.0,-50.0,1.02,0,100.0,0.0,1.0,0.0,0.0,1.0,1,100.0,150.0,65.0,1,1.0,0,1.0,0,1.0,0,1.0,0,1.0
20419,'3',79.321,93.0,93.0,-50.0,1.02,0,100.0,0.0,1.0,0.0,0.0,1.0,1,100.0,150.0,58.5,1,1.0,0,1.0,0,1.0,0,1.0,0,1.0
20419,'4',88.471,93.0,93.0,-50.0,1.02,0,100.0,0.0,1.0,0.0,0.0,1.0,1,100.0,150.0,58.5,1,1.0,0,1.0,0,1.0,0,1.0,0,1.0
20421,'1',72.563,19.467,62.5,-43.0,1.02,0,100.0,0.0,1.0,0.0,0.0,1.0,1,100.0,129.0,70.0,1,1.0,0,1.0,0,1.0,0,1.0,0,1.0
20421,'2',72.563,19.467,62.5,-43.0,1.02,0,100.0,0.0,1.0,0.0,0.0,1.0,1,100.0,129.0,70.0,1,1.0,0,1.0,0,1.0,0,1.0,0,1.0
20422,'1',35.835,74.768,78.3,-46.0,1.02,0,100.0,0.0,1.0,0.0,0.0,1.0,1,100.0,138.1,34.53,1,1.0,0,1.0,0,1.0,0,1.0,0,1.0
20422,'2',98.921,74.768,90.3,-42.5,1.02,0,100.0,0.0,1.0,0.0,0.0,1.0,1,100.0,127.5,49.72,1,1.0,0,1.0,0,1.0,0,1.0,0,1.0
20422,'3',92.918,74.768,90.7,-42.7,1.02,0,100.0,0.0,1.0,0.0,0.0,1.0,1,100.0,128.0,49.92,1,1.0,0,1.0,0,1.0,0,1.0,0,1.0
20422,'4',85.108,74.768,90.7,-42.7,1.02,0,100.0,0.0,1.0,0.0,0.0,1.0,1,100.0,128.0,49.92,1,1.0,0,1.0,0,1.0,0,1.0,0,1.0
20423,'1',78.222,35.545,60.6,-41.7,1.02,0,100.0,0.0,1.0,0.0,0.0,1.0,1,100.0,125.1,45.0,1,1.0,0,1.0,0,1.0,0,1.0,0,1.0
20423,'2',94.242,35.545,60.6,-41.7,1.02,0,100.0,0.0,1.0,0.0,0.0,1.0,1,100.0,125.1,45.0,1,1.0,0,1.0,0,1.0,0,1.0,0,1.0
20423,'3',71.516,35.545,60.6,-41.7,1.02,0,100.0,0.0,1.0,0.0,0.0,1.0,1,100.0,125.1,45.0,1,1.0,0,1.0,0,1.0,0,1.0,0,1.0
20423,'4',71.516,35.545,60.6,-41.7,1.02,0,100.0,0.0,1.0,0.0,0.0,1.0,1,100.0,125.1,45.0,1,1.0,0,1.0,0,1.0,0,1.0,0,1.0
20428,'1',48.459,-0.173,64.3,-34.6,1.02,0,100.0,0.0,1.0,0.0,0.0,1.0,1,100.0,103.7,45.0,1,1.0,0,1.0,0,1.0,0,1.0,0,1.0
20428,'2',143.852,-0.173,87.2,-87.2,1.02,0,100.0,0.0,1.0,0.0,0.0,1.0,1,100.0,265.2,135.0,1,1.0,0,1.0,0,1.0,0,1.0,0,1.0
20429,'1',99.0,45.6,45.6,-45.6,1.02,0,100.0,0.0,1.0,0.0,0.0,1.0,1,100.0,103.5,0.0,1,1.0,0,1.0,0,1.0,0,1.0,1,1.0
20430,'1',99.0,43.897,96.9,-66.7,1.02,0,100.0,0.0,1.0,0.0,0.0,1.0,1,100.0,200.0,0.0,1,1.0,0,1.0,0,1.0,0,1.0,1,1.0
20430,'2',99.0,43.897,97.5,-67.1,1.02,0,100.0,0.0,1.0,0.0,0.0,1.0,1,100.0,201.3,0.0,1,1.0,0,1.0,0,1.0,0,1.0,1,1.0
20430,'3',99.0,43.897,44.1,-44.1,1.02,0,100.0,0.0,1.0,0.0,0.0,1.0,1,100.0,100.0,0.0,1,1.0,0,1.0,0,1.0,0,1.0,1,1.0
20430,'4',88.0,43.7,43.7,-43.7,1.02,0,100.0,0.0,1.0,0.0,0.0,1.0,1,100.0,99.0,0.0,1,1.0,0,1.0,0,1.0,0,1.0,1,1.0
20431,'1',88.0,13.908,43.7,-43.7,1.02,0,100.0,0.0,1.0,0.0,0.0,1.0,1,100.0,99.0,0.0,1,1.0,0,1.0,0,1.0,0,1.0,1,1.0
20432,'1',88.0,-3.779,43.5,-43.5,1.02,0,100.0,0.0,1.0,0.0,0.0,1.0,1,100.0,98.7,0.0,1,1.0,0,1.0,0,1.0,0,1.0,1,1.0
20435,'1',5.283,9.9,9.9,-9.9,1.02,0,100.0,0.0,1.0,0.0,0.0,1.0,1,100.0,30.0,5.0,1,1.0,0,1.0,0,1.0,0,1.0,0,1.0
20435,'2',2.61,7.53,7.53,-4.93,1.02,0,100.0,0.0,1.0,0.0,0.0,1.0,1,100.0,14.8,2.47,1,1.0,0,1.0,0,1.0,0,1.0,0,1.0
20435,'3',2.61,7.53,7.53,-4.93,1.02,0,100.0,0.0,1.0,0.0,0.0,1.0,1,100.0,14.8,2.47,1,1.0,0,1.0,0,1.0,0,1.0,0,1.0
20435,'4',2.61,7.53,7.53,-4.93,1.02,0,100.0,0.0,1.0,0.0,0.0,1.0,1,100.0,14.8,2.47,1,1.0,0,1.0,0,1.0,0,1.0,0,1.0
20435,'5',2.61,7.53,7.53,-4.93,1.02,0,100.0,0.0,1.0,0.0,0.0,1.0,1,100.0,14.8,2.47,1,1.0,0,1.0,0,1.0,0,1.0,0,1.0
20435,'6',2.61,7.53,7.53,-4.93,1.02,0,100.0,0.0,1.0,0.0,0.0,1.0,1,100.0,14.8,2.47,1,1.0,0,1.0,0,1.0,0,1.0,0,1.0
20435,'7',2.61,7.53,7.53,-4.93,1.02,0,100.0,0.0,1.0,0.0,0.0,1.0,1,100.0,14.8,2.47,1,1.0,0,1.0,0,1.0,0,1.0,0,1.0
20436,'1',52.672,14.445,53.6,-28.8,1.02,0,100.0,0.0,1.0,0.0,0.0,1.0,1,100.0,86.5,50.0,1,1.0,0,1.0,0,1.0,0,1.0,0,1.0
20436,'2',52.672,14.445,53.6,-28.8,1.02,0,100.0,0.0,1.0,0.0,0.0,1.0,1,100.0,86.5,50.0,1,1.0,0,1.0,0,1.0,0,1.0,0,1.0
20436,'3',52.672,14.445,53.6,-28.8,1.02,0,100.0,0.0,1.0,0.0,0.0,1.0,1,100.0,86.5,50.0,1,1.0,0,1.0,0,1.0,0,1.0,0,1.0
20436,'4',52.672,14.445,53.6,-28.8,1.02,0,100.0,0.0,1.0,0.0,0.0,1.0,1,100.0,86.5,50.0,1,1.0,0,1.0,0,1.0,0,1.0,0,1.0
20436,'5',52.672,14.445,53.6,-28.8,1.02,0,100.0,0.0,1.0,0.0,0.0,1.0,1,100.0,86.5,50.0,1,1.0,0,1.0,0,1.0,0,1.0,0,1.0
20436,'6',52.672,14.445,53.6,-28.8,1.02,0,100.0,0.0,1.0,0.0,0.0,1.0,1,100.0,86.5,50.0,1,1.0,0,1.0,0,1.0,0,1.0,0,1.0
20436,'7',52.672,14.445,53.6,-28.8,1.02,0,100.0,0.0,1.0,0.0,0.0,1.0,1,100.0,86.5,50.0,1,1.0,0,1.0,0,1.0,0,1.0,0,1.0
20436,'8',52.672,14.445,53.6,-28.8,1.02,0,100.0,0.0,1.0,0.0,0.0,1.0,1,100.0,86.5,50.0,1,1.0,0,1.0,0,1.0,0,1.0,0,1.0
20437,'1',66.689,52.7,52.7,-28.3,1.02,0,100.0,0.0,1.0,0.0,0.0,1.0,1,100.0,85.0,45.0,1,1.0,0,1.0,0,1.0,0,1.0,0,1.0
20437,'2',66.689,52.7,52.7,-28.3,1.02,0,100.0,0.0,1.0,0.0,0.0,1.0,1,100.0,85.0,45.0,1,1.0,0,1.0,0,1.0,0,1.0,0,1.0
20437,'3',66.689,52.7,52.7,-28.3,1.02,0,100.0,0.0,1.0,0.0,0.0,1.0,1,100.0,85.0,45.0,1,1.0,0,1.0,0,1.0,0,1.0,0,1.0
20437,'4',66.689,52.7,52.7,-28.3,1.02,0,100.0,0.0,1.0,0.0,0.0,1.0,1,100.0,85.0,45.0,1,1.0,0,1.0,0,1.0,0,1.0,0,1.0
20438,'1',21.331,41.5,41.5,-22.3,1.02,0,100.0,0.0,1.0,0.0,0.0,1.0,1,100.0,67.0,20.0,1,1.0,0,1.0,0,1.0,0,1.0,0,1.0
20438,'2',21.331,41.5,41.5,-22.3,1.02,0,100.0,0.0,1.0,0.0,0.0,1.0,1,100.0,67.0,20.0,1,1.0,0,1.0,0,1.0,0,1.0,0,1.0
20438,'3',21.331,41.5,41.5,-22.3,1.02,0,100.0,0.0,1.0,0.0,0.0,1.0,1,100.0,67.0,20.0,1,1.0,0,1.0,0,1.0,0,1.0,0,1.0
20438,'4',21.331,41.5,41.5,-22.3,1.02,0,100.0,0.0,1.0,0.0,0.0,1.0,1,100.0,67.0,20.0,1,1.0,0,1.0,0,1.0,0,1.0,0,1.0
20438,'5',21.331,41.5,41.5,-22.3,1.02,0,100.0,0.0,1.0,0.0,0.0,1.0,1,100.0,67.0,20.0,1,1.0,0,1.0,0,1.0,0,1.0,0,1.0
20438,'6',21.331,41.5,41.5,-22.3,1.02,0,100.0,0.0,1.0,0.0,0.0,1.0,1,100.0,67.0,20.0,1,1.0,0,1.0,0,1.0,0,1.0,0,1.0
20439,'1',28.889,40.3,40.3,-20.3,1.02,0,100.0,0.0,1.0,0.0,0.0,1.0,1,100.0,61.0,27.0,1,1.0,0,1.0,0,1.0,0,1.0,0,1.0
20440,'1',35.273,37.5,37.5,-16.7,1.02,0,100.0,0.0,1.0,0.0,0.0,1.0,1,100.0,50.0,23.8,1,1.0,0,1.0,0,1.0,0,1.0,0,1.0
20440,'2',35.273,37.5,37.5,-16.7,1.02,0,100.0,0.0,1.0,0.0,0.0,1.0,1,100.0,50.0,23.8,1,1.0,0,1.0,0,1.0,0,1.0,0,1.0
20440,'3',33.448,45.8,45.8,-20.3,1.02,0,100.0,0.0,1.0,0.0,0.0,1.0,1,100.0,61.0,29.04,1,1.0,0,1.0,0,1.0,0,1.0,0,1.0
20440,'4',33.448,45.8,45.8,-20.3,1.02,0,100.0,0.0,1.0,0.0,0.0,1.0,1,100.0,61.0,29.04,1,1.0,0,1.0,0,1.0,0,1.0,0,1.0
20440,'5',33.448,45.8,45.8,-20.3,1.02,0,100.0,0.0,1.0,0.0,0.0,1.0,1,100.0,61.0,29.04,1,1.0,0,1.0,0,1.0,0,1.0,0,1.0
20442,'1',56.467,36.6,36.6,-19.7,1.02,0,100.0,0.0,1.0,0.0,0.0,1.0,1,100.0,59.0,10.0,1,1.0,0,1.0,0,1.0,0,1.0,0,1.0
20442,'2',56.467,36.6,36.6,-19.7,1.02,0,100.0,0.0,1.0,0.0,0.0,1.0,1,100.0,59.0,10.0,1,1.0,0,1.0,0,1.0,0,1.0,0,1.0
20442,'3',56.467,36.6,36.6,-19.7,1.02,0,100.0,0.0,1.0,0.0,0.0,1.0,1,100.0,59.0,10.0,1,1.0,0,1.0,0,1.0,0,1.0,0,1.0
20442,'4',56.467,36.6,36.6,-19.7,1.02,0,100.0,0.0,1.0,0.0,0.0,1.0,1,100.0,59.0,10.0,1,1.0,0,1.0,0,1.0,0,1.0,0,1.0
20444,'1',10.482,16.8,16.8,-16.8,1.02,0,100.0,0.0,1.0,0.0,0.0,1.0,1,100.0,51.0,10.0,1,1.0,0,1.0,0,1.0,0,1.0,0,1.0
20444,'2',10.597,20.8,20.8,-20.8,1.02,0,100.0,0.0,1.0,0.0,0.0,1.0,1,100.0,63.2,10.0,1,1.0,0,1.0,0,1.0,0,1.0,0,1.0
20444,'3',2.586,20.4,20.4,-20.4,1.02,0,100.0,0.0,1.0,0.0,0.0,1.0,1,100.0,62.0,2.0,1,1.0,0,1.0,0,1.0,0,1.0,0,1.0
20445,'1',38.193,31.0,31.0,-16.7,1.02,0,100.0,0.0,1.0,0.0,0.0,1.0,1,100.0,50.0,34.0,1,1.0,0,1.0,0,1.0,0,1.0,0,1.0
20445,'2',108.714,70.4,70.4,-37.9,1.02,0,100.0,0.0,1.0,0.0,0.0,1.0,1,100.0,113.6,54.0,1,1.0,0,1.0,0,1.0,0,1.0,0,1.0
20445,'3',66.038,42.8,42.8,-23.0,1.02,0,100.0,0.0,1.0,0.0,0.0,1.0,1,100.0,69.0,32.0,1,1.0,0,1.0,0,1.0,0,1.0,0,1.0
20445,'4',66.038,42.8,42.8,-23.0,1.02,0,100.0,0.0,1.0,0.0,0.0,1.0,1,100.0,69.0,32.0,1,1.0,0,1.0,0,1.0,0,1.0,0,1.0
20445,'5',16.995,28.5,28.5,-15.3,1.02,0,100.0,0.0,1.0,0.0,0.0,1.0,1,100.0,46.0,16.56,1,1.0,0,1.0,0,1.0,0,1.0,0,1.0
20445,'6',16.995,28.5,28.5,-15.3,1.02,0,100.0,0.0,1.0,0.0,0.0,1.0,1,100.0,46.0,16.56,1,1.0,0,1.0,0,1.0,0,1.0,0,1.0
20446,'1',2.395,20.2,20.2,-13.9,1.02,0,100.0,0.0,1.0,0.0,0.0,1.0,1,100.0,41.8,2.0,1,1.0,0,1.0,0,1.0,0,1.0,0,1.0
20446,'2',2.395,20.2,20.2,-13.9,1.02,0,100.0,0.0,1.0,0.0,0.0,1.0,1,100.0,41.8,2.0,1,1.0,0,1.0,0,1.0,0,1.0,0,1.0
20448,'1',39.623,25.7,25.7,-13.8,1.02,0,100.0,0.0,1.0,0.0,0.0,1.0,1,100.0,41.4,17.0,1,1.0,0,1.0,0,1.0,0,1.0,0,1.0
20448,'2',39.623,25.7,25.7,-13.8,1.02,0,100.0,0.0,1.0,0.0,0.0,1.0,1,100.0,41.4,17.0,1,1.0,0,1.0,0,1.0,0,1.0,0,1.0
20448,'3',67.647,53.2,53.2,-28.6,1.02,0,100.0,0.0,1.0,0.0,0.0,1.0,1,100.0,85.9,36.0,1,1.0,0,1.0,0,1.0,0,1.0,0,1.0
20449,'1',27.934,21.62,30.2,-13.4,1.02,0,100.0,0.0,1.0,0.0,0.0,1.0,1,100.0,40.2,14.07,1,1.0,0,1.0,0,1.0,0,1.0,0,1.0
20449,'2',57.68,21.62,51.8,-23.0,1.02,0,100.0,0.0,1.0,0.0,0.0,1.0,1,100.0,69.0,24.15,1,1.0,0,1.0,0,1.0,0,1.0,0,1.0
20449,'3',12.931,21.62,26.3,-11.7,1.02,0,100.0,0.0,1.0,0.0,0.0,1.0,1,100.0,35.0,12.6,1,1.0,0,1.0,0,1.0,0,1.0,0,1.0
20450,'1',47.957,37.7,37.7,-20.3,1.02,0,100.0,0.0,1.0,0.0,0.0,1.0,1,100.0,60.9,28.0,1,1.0,0,1.0,0,1.0,0,1.0,0,1.0
20450,'2',23.555,20.5,20.5,-11.0,1.02,0,100.0,0.0,1.0,0.0,0.0,1.0,1,100.0,33.0,13.0,1,1.0,0,1.0,0,1.0,0,1.0,0,1.0
20455,'1',10.624,6.9,6.9,-3.7,1.02,0,100.0,0.0,1.0,0.0,0.0,1.0,1,100.0,11.1,2.0,1,1.0,0,1.0,0,1.0,0,1.0,0,1.0
20455,'2',10.624,6.9,6.9,-3.7,1.02,0,100.0,0.0,1.0,0.0,0.0,1.0,1,100.0,11.1,2.0,1,1.0,0,1.0,0,1.0,0,1.0,0,1.0
20460,'1',810.356,134.494,608.9,-270.6,1.02,0,100.0,0.0,1.0,0.0,0.0,1.0,1,100.0,811.8,0.0,1,1.0,0,1.0,0,1.0,0,1.0,0,1.0
20462,'1',243.117,11.138,204.4,-109.9,1.02,0,100.0,0.0,1.0,0.0,0.0,1.0,1,100.0,329.8,240.0,1,1.0,0,1.0,0,1.0,0,1.0,0,1.0
20462,'2',243.117,11.138,204.4,-109.9,1.02,0,100.0,0.0,1.0,0.0,0.0,1.0,1,100.0,329.8,240.0,1,1.0,0,1.0,0,1.0,0,1.0,0,1.0
20462,'3',243.117,11.138,204.4,-109.9,1.02,0,100.0,0.0,1.0,0.0,0.0,1.0,1,100.0,329.8,240.0,1,1.0,0,1.0,0,1.0,0,1.0,0,1.0
20462,'4',246.553,11.138,204.4,-109.9,1.02,0,100.0,0.0,1.0,0.0,0.0,1.0,1,100.0,329.8,240.0,1,1.0,0,1.0,0,1.0,0,1.0,0,1.0
20462,'5',246.553,11.138,204.4,-109.9,1.02,0,100.0,0.0,1.0,0.0,0.0,1.0,1,100.0,329.8,240.0,1,1.0,0,1.0,0,1.0,0,1.0,0,1.0
20462,'6',246.553,11.138,204.4,-109.9,1.02,0,100.0,0.0,1.0,0.0,0.0,1.0,1,100.0,329.8,240.0,1,1.0,0,1.0,0,1.0,0,1.0,0,1.0
20464,'1',625.505,201.017,544.0,-305.6,1.02,0,100.0,0.0,1.0,0.0,0.0,1.0,1,100.0,916.8,350.0,1,1.0,0,1.0,0,1.0,0,1.0,0,1.0
20464,'2',0.0,0.0,164.4,-88.4,1.02,0,100.0,0.0,1.0,0.0,0.0,1.0,0,100.0,265.2,100.0,1,1.0,0,1.0,0,1.0,0,1.0,0,1.0
20464,'3',103.684,201.017,313.9,-126.3,1.02,0,100.0,0.0,1.0,0.0,0.0,1.0,1,100.0,378.8,100.0,1,1.0,0,1.0,0,1.0,0,1.0,0,1.0
20465,'1',140.69,38.917,91.1,-49.0,1.02,0,100.0,0.0,1.0,0.0,0.0,1.0,1,100.0,147.0,90.0,1,1.0,0,1.0,0,1.0,0,1.0,0,1.0
20465,'2',140.69,38.917,91.1,-49.0,1.02,0,100.0,0.0,1.0,0.0,0.0,1.0,1,100.0,147.0,90.0,1,1.0,0,1.0,0,1.0,0,1.0,0,1.0
20465,'3',140.69,38.917,91.1,-49.0,1.02,0,100.0,0.0,1.0,0.0,0.0,1.0,1,100.0,147.0,90.0,1,1.0,0,1.0,0,1.0,0,1.0,0,1.0
20465,'4',172.315,38.917,151.8,-81.7,1.02,0,100.0,0.0,1.0,0.0,0.0,1.0,1,100.0,245.0,170.0,1,1.0,0,1.0,0,1.0,0,1.0,0,1.0
20465,'5',172.315,38.917,151.8,-81.7,1.02,0,100.0,0.0,1.0,0.0,0.0,1.0,1,100.0,245.0,170.0,1,1.0,0,1.0,0,1.0,0,1.0,0,1.0
20465,'6',172.315,38.917,151.8,-81.7,1.02,0,100.0,0.0,1.0,0.0,0.0,1.0,1,100.0,245.0,170.0,1,1.0,0,1.0,0,1.0,0,1.0,0,1.0
20467,'1',116.783,113.773,116.9,-62.9,1.02,0,100.0,0.0,1.0,0.0,0.0,1.0,1,100.0,188.7,115.0,1,1.0,0,1.0,0,1.0,0,1.0,0,1.0
20467,'2',116.783,113.773,116.9,-62.9,1.02,0,100.0,0.0,1.0,0.0,0.0,1.0,1,100.0,188.7,115.0,1,1.0,0,1.0,0,1.0,0,1.0,0,1.0
20467,'3',122.017,113.773,132.3,-71.1,1.02,0,100.0,0.0,1.0,0.0,0.0,1.0,1,100.0,213.4,120.0,1,1.0,0,1.0,0,1.0,0,1.0,0,1.0
20467,'4',0.0,0.0,116.9,-62.9,1.02,0,100.0,0.0,1.0,0.0,0.0,1.0,0,100.0,188.7,90.0,1,1.0,0,1.0,0,1.0,0,1.0,0,1.0
20467,'5',0.0,0.0,116.9,-62.9,1.02,0,100.0,0.0,1.0,0.0,0.0,1.0,0,100.0,188.7,90.0,1,1.0,0,1.0,0,1.0,0,1.0,0,1.0
20469,'1',117.606,33.97,105.4,-56.7,1.02,0,100.0,0.0,1.0,0.0,0.0,1.0,1,100.0,170.0,116.0,1,1.0,0,1.0,0,1.0,0,1.0,0,1.0
20469,'2',117.606,33.97,105.4,-56.7,1.02,0,100.0,0.0,1.0,0.0,0.0,1.0,1,100.0,170.0,116.0,1,1.0,0,1.0,0,1.0,0,1.0,0,1.0
20469,'3',117.606,33.97,105.4,-56.7,1.02,0,100.0,0.0,1.0,0.0,0.0,1.0,1,100.0,170.0,116.0,1,1.0,0,1.0,0,1.0,0,1.0,0,1.0
20469,'4',117.606,33.97,105.4,-56.7,1.02,0,100.0,0.0,1.0,0.0,0.0,1.0,1,100.0,170.0,116.0,1,1.0,0,1.0,0,1.0,0,1.0,0,1.0
20472,'1',103.981,95.9,95.9,-51.6,1.02,0,100.0,0.0,1.0,0.0,0.0,1.0,1,100.0,154.7,100.0,1,1.0,0,1.0,0,1.0,0,1.0,0,1.0
20483,'1',8.33,0.595,9.06,-5.34,1.02,0,100.0,0.0,1.0,0.0,0.0,1.0,1,100.0,16.0,8.0,1,1.0,0,1.0,0,1.0,0,1.0,0,1.0
20483,'2',8.33,0.595,9.06,-5.34,1.02,0,100.0,0.0,1.0,0.0,0.0,1.0,1,100.0,16.0,8.0,1,1.0,0,1.0,0,1.0,0,1.0,0,1.0
20483,'3',8.33,0.595,9.06,-5.34,1.02,0,100.0,0.0,1.0,0.0,0.0,1.0,1,100.0,16.0,8.0,1,1.0,0,1.0,0,1.0,0,1.0,0,1.0
20483,'4',8.33,0.595,9.06,-5.34,1.02,0,100.0,0.0,1.0,0.0,0.0,1.0,1,100.0,16.0,8.0,1,1.0,0,1.0,0,1.0,0,1.0,0,1.0
20483,'5',8.151,0.595,9.06,-5.34,1.02,0,100.0,0.0,1.0,0.0,0.0,1.0,1,100.0,16.0,8.0,1,1.0,0,1.0,0,1.0,0,1.0,0,1.0
20494,'1',33.198,22.12,37.2,-20.0,1.02,0,100.0,0.0,1.0,0.0,0.0,1.0,1,100.0,60.0,12.0,1,1.0,0,1.0,0,1.0,0,1.0,0,1.0
20494,'2',33.198,22.12,37.2,-20.0,1.02,0,100.0,0.0,1.0,0.0,0.0,1.0,1,100.0,60.0,12.0,1,1.0,0,1.0,0,1.0,0,1.0,0,1.0
20494,'3',33.198,22.12,37.2,-20.0,1.02,0,100.0,0.0,1.0,0.0,0.0,1.0,1,100.0,60.0,12.0,1,1.0,0,1.0,0,1.0,0,1.0,0,1.0
20494,'4',33.198,22.12,37.2,-20.0,1.02,0,100.0,0.0,1.0,0.0,0.0,1.0,1,100.0,60.0,12.0,1,1.0,0,1.0,0,1.0,0,1.0,0,1.0
20494,'5',33.198,22.12,37.2,-20.0,1.02,0,100.0,0.0,1.0,0.0,0.0,1.0,1,100.0,60.0,12.0,1,1.0,0,1.0,0,1.0,0,1.0,0,1.0
20494,'6',33.198,22.12,37.2,-20.0,1.02,0,100.0,0.0,1.0,0.0,0.0,1.0,1,100.0,60.0,12.0,1,1.0,0,1.0,0,1.0,0,1.0,0,1.0
20494,'7',46.57,22.12,38.3,-26.3,1.02,0,100.0,0.0,1.0,0.0,0.0,1.0,1,100.0,79.0,45.0,1,1.0,0,1.0,0,1.0,0,1.0,0,1.0
20494,'8',14.086,22.12,65.1,-35.0,1.02,0,100.0,0.0,1.0,0.0,0.0,1.0,1,100.0,105.0,12.0,1,1.0,0,1.0,0,1.0,0,1.0,0,1.0
20494,'9',14.086,22.12,65.1,-35.0,1.02,0,100.0,0.0,1.0,0.0,0.0,1.0,1,100.0,105.0,12.0,1,1.0,0,1.0,0,1.0,0,1.0,0,1.0
20500,'1',44.908,21.832,49.6,-26.7,1.02,0,100.0,0.0,1.0,0.0,0.0,1.0,1,100.0,80.0,40.0,1,1.0,0,1.0,0,1.0,0,1.0,0,1.0
20500,'2',41.842,21.832,49.6,-26.7,1.02,0,100.0,0.0,1.0,0.0,0.0,1.0,1,100.0,80.0,40.0,1,1.0,0,1.0,0,1.0,0,1.0,0,1.0
20500,'3',41.842,21.832,49.6,-26.7,1.02,0,100.0,0.0,1.0,0.0,0.0,1.0,1,100.0,80.0,40.0,1,1.0,0,1.0,0,1.0,0,1.0,0,1.0
20500,'4',22.697,21.832,27.3,-14.7,1.02,0,100.0,0.0,1.0,0.0,0.0,1.0,1,100.0,44.0,20.0,1,1.0,0,1.0,0,1.0,0,1.0,0,1.0
20500,'5',22.697,21.832,27.3,-14.7,1.02,0,100.0,0.0,1.0,0.0,0.0,1.0,1,100.0,44.0,20.0,1,1.0,0,1.0,0,1.0,0,1.0,0,1.0
20500,'6',22.888,21.832,29.1,-15.7,1.02,0,100.0,0.0,1.0,0.0,0.0,1.0,1,100.0,47.0,20.0,1,1.0,0,1.0,0,1.0,0,1.0,0,1.0
20502,'1',29.284,2.608,26.3,-14.1,1.02,0,100.0,0.0,1.0,0.0,0.0,1.0,1,100.0,42.4,28.4,1,1.0,0,1.0,0,1.0,0,1.0,0,1.0
20502,'2',27.684,2.608,26.3,-14.1,1.02,0,100.0,0.0,1.0,0.0,0.0,1.0,1,100.0,42.4,26.8,1,1.0,0,1.0,0,1.0,0,1.0,0,1.0
20502,'3',25.605,2.608,26.6,-14.3,1.02,0,100.0,0.0,1.0,0.0,0.0,1.0,1,100.0,42.9,25.2,1,1.0,0,1.0,0,1.0,0,1.0,0,1.0
20502,'4',25.284,2.608,26.3,-14.1,1.02,0,100.0,0.0,1.0,0.0,0.0,1.0,1,100.0,42.4,24.4,1,1.0,0,1.0,0,1.0,0,1.0,0,1.0
20505,'1',0.0,0.0,24.2,-13.0,1.02,0,100.0,0.0,1.0,0.0,0.0,1.0,0,100.0,39.1,15.0,1,1.0,0,1.0,0,1.0,0,1.0,0,1.0
20505,'2',0.0,0.0,24.2,-13.0,1.02,0,100.0,0.0,1.0,0.0,0.0,1.0,0,100.0,39.1,15.0,1,1.0,0,1.0,0,1.0,0,1.0,0,1.0
20505,'3',0.0,0.0,51.7,-27.8,1.02,0,100.0,0.0,1.0,0.0,0.0,1.0,0,100.0,83.5,50.0,1,1.0,0,1.0,0,1.0,0,1.0,0,1.0
20507,'1',17.951,11.15,11.15,-6.0,1.02,0,100.0,0.0,1.0,0.0,0.0,1.0,1,100.0,18.0,7.74,1,1.0,0,1.0,0,1.0,0,1.0,0,1.0
20507,'2',17.951,11.15,11.15,-6.0,1.02,0,100.0,0.0,1.0,0.0,0.0,1.0,1,100.0,18.0,7.74,1,1.0,0,1.0,0,1.0,0,1.0,0,1.0
20516,'1',0.0,0.0,11.6,-8.0,1.02,0,100.0,0.0,1.0,0.0,0.0,1.0,0,100.0,24.0,10.0,1,1.0,0,1.0,0,1.0,0,1.0,0,1.0
20524,'1',0.0,0.0,13.6,-7.3,1.02,0,100.0,0.0,1.0,0.0,0.0,1.0,0,100.0,22.0,15.0,1,1.0,0,1.0,0,1.0,0,1.0,0,1.0
20524,'2',0.0,0.0,18.2,-9.8,1.02,0,100.0,0.0,1.0,0.0,0.0,1.0,0,100.0,29.3,18.0,1,1.0,0,1.0,0,1.0,0,1.0,0,1.0
20527,'1',0.205,2.2,2.2,-2.2,1.02,0,100.0,0.0,1.0,0.0,0.0,1.0,1,100.0,6.7,0.0,1,1.0,0,1.0,0,1.0,0,1.0,0,1.0
20527,'2',0.205,2.2,2.2,-2.2,1.02,0,100.0,0.0,1.0,0.0,0.0,1.0,1,100.0,6.7,0.0,1,1.0,0,1.0,0,1.0,0,1.0,0,1.0
20527,'3',0.205,2.2,2.2,-2.2,1.02,0,100.0,0.0,1.0,0.0,0.0,1.0,1,100.0,6.7,0.0,1,1.0,0,1.0,0,1.0,0,1.0,0,1.0
20538,'1',71.182,62.99,83.7,-45.0,1.02,0,100.0,0.0,1.0,0.0,0.0,1.0,1,100.0,135.0,40.0,1,1.0,0,1.0,0,1.0,0,1.0,0,1.0
20538,'2',71.182,62.99,83.7,-45.0,1.02,0,100.0,0.0,1.0,0.0,0.0,1.0,1,100.0,135.0,40.0,1,1.0,0,1.0,0,1.0,0,1.0,0,1.0
20538,'3',71.182,62.99,83.7,-45.0,1.02,0,100.0,0.0,1.0,0.0,0.0,1.0,1,100.0,135.0,40.0,1,1.0,0,1.0,0,1.0,0,1.0,0,1.0
20538,'4',26.022,53.92,53.92,-29.0,1.02,0,100.0,0.0,1.0,0.0,0.0,1.0,1,100.0,87.0,25.2,1,1.0,0,1.0,0,1.0,0,1.0,0,1.0
20538,'5',26.022,53.92,53.92,-29.0,1.02,0,100.0,0.0,1.0,0.0,0.0,1.0,1,100.0,87.0,25.2,1,1.0,0,1.0,0,1.0,0,1.0,0,1.0
20538,'6',26.022,53.92,53.92,-29.0,1.02,0,100.0,0.0,1.0,0.0,0.0,1.0,1,100.0,87.0,25.2,1,1.0,0,1.0,0,1.0,0,1.0,0,1.0
20538,'7',26.022,53.92,53.92,-29.0,1.02,0,100.0,0.0,1.0,0.0,0.0,1.0,1,100.0,87.0,25.2,1,1.0,0,1.0,0,1.0,0,1.0,0,1.0
...
0 / END OF GENERATOR DATA BEGIN BRANCH DATA
20401,20415,'1',0.00097082,0.011043,0.099744,736.0,772.8,809.6,0.0,0.0,0.0,0.0,1,1,16.1,1,1.0,0,1.0,0,1.0,0,1.0
20401,20441,'1',0.0047231,0.052055,0.50897,736.0,772.8,809.6,0.0,0.0,0.0,0.0,1,1,79.1,1,1.0,0,1.0,0,1.0,0,1.0
20401,20857,'1',0.0010111,0.016464,0.25723,1419.0,1489.9,1560.9,0.0,0.0,0.0,0.0,1,1,31.8,1,1.0,0,1.0,0,1.0,0,1.0
20401,21714,'1',0.00077966,0.013891,0.14413,1046.0,1098.3,1150.6,0.0,0.0,0.0,0.0,1,1,21.7,1,1.0,0,1.0,0,1.0,0,1.0
20401,21992,'1',0.0014574,0.016943,0.14655,736.0,772.8,809.6,0.0,0.0,0.0,0.0,1,1,24.2,1,1.0,0,1.0,0,1.0,0,1.0
20401,81861,'1',0.0027,0.02497,0.41704,1195.0,1195.0,1195.0,0.0,0.0,0.0,0.0,1,1,50.2,1,1.0,0,1.0,0,1.0,0,1.0
20403,20412,'1',0.00070919,0.0128,0.28386,1959.0,2056.9,2154.9,0.0,0.0,0.0,0.0,1,1,29.5,1,1.0,0,1.0,0,1.0,0,1.0
20403,21305,'1',6.5642e-05,0.001087,0.010188,960.0,1008.0,1056.0,0.0,0.0,0.0,0.0,1,1,1.6,1,1.0,0,1.0,0,1.0,0,1.0
20403,21313,'1',0.00010058,0.00186,0.01787,1046.0,1098.3,1150.6,0.0,0.0,0.0,0.0,1,1,2.8,1,1.0,0,1.0,0,1.0,0,1.0
20403,21323,'1',0.0005122,0.0084807,0.090585,998.0,1047.9,1097.8,0.0,0.0,0.0,0.0,1,1,13.4,1,1.0,0,1.0,0,1.0,0,1.0
20405,20436,'1',7.0492e-05,0.00081356,0.0071318,736.0,772.8,809.6,0.0,0.0,0.0,0.0,1,1,1.2,1,1.0,0,1.0,0,1.0,0,1.0
20405,21667,'1',0.0017447,0.020148,0.17678,736.0,772.8,809.6,0.0,0.0,0.0,0.0,1,1,29.0,1,1.0,0,1.0,0,1.0,0,1.0
20405,21940,'1',0.001573,0.019834,0.30271,1190.0,1249.5,1309.0,0.0,0.0,0.0,0.0,1,1,37.9,1,1.0,0,1.0,0,1.0,0,1.0
20407,21758,'1',0.00076858,0.008434,0.081934,736.0,772.8,809.6,0.0,0.0,0.0,0.0,1,1,12.8,1,1.0,0,1.0,0,1.0,0,1.0
20407,21997,'1',0.00038802,0.0042575,0.041355,736.0,772.8,809.6,0.0,0.0,0.0,0.0,1,1,6.4,1,1.0,0,1.0,0,1.0,0,1.0
20408,21120,'1',3.9796e-05,0.000644,0.0064943,970.0,1018.5,1067.0,0.0,0.0,0.0,0.0,1,1,1.0,1,1.0,0,1.0,0,1.0,0,1.0
20408,81883,'1',0.0012244,0.019116,0.32546,1419.0,1489.9,1560.9,0.0,0.0,0.0,0.0,1,1,38.5,1,1.0,0,1.0,0,1.0,0,1.0
20409,22032,'1',0.00037879,0.004291,0.039065,736.0,772.8,809.6,0.0,0.0,0.0,0.0,1,1,6.3,1,1.0,0,1.0,0,1.0,0,1.0
20409,22034,'1',0.00010399,0.0019232,0.018477,1046.0,1098.3,1150.6,0.0,0.0,0.0,0.0,1,1,2.9,1,1.0,0,1.0,0,1.0,0,1.0
20409,81902,'1',0.00043705,0.005109,0.090527,1190.0,1249.5,1309.0,0.0,0.0,0.0,0.0,1,1,10.5,1,1.0,0,1.0,0,1.0,0,1.0
20410,22091,'1',0.00073154,0.0081457,0.076823,736.0,772.8,809.6,0.0,0.0,0.0,0.0,1,1,12.1,1,1.0,0,1.0,0,1.0,0,1.0
20411,21191,'1',0.00041004,0.005419,0.0868,1251.0,1313.5,1376.1,0.0,0.0,0.0,0.0,1,1,10.6,1,1.0,0,1.0,0,1.0,0,1.0
20411,21726,'1',5.1473e-05,0.00093581,0.017502,1624.0,1705.2,1786.4,0.0,0.0,0.0,0.0,1,1,2.0,1,1.0,0,1.0,0,1.0,0,1.0
20412,21238,'1',5.6309e-05,0.0010775,0.018173,1624.0,1705.2,1786.4,0.0,0.0,0.0,0.0,1,1,2.2,1,1.0,0,1.0,0,1.0,0,1.0
20412,21238,'2',5.6e-05,0.001078,0.018173,1624.0,1705.2,1786.4,0.0,0.0,0.0,0.0,1,1,2.2,1,1.0,0,1.0,0,1.0,0,1.0
20412,21239,'1',4.7436e-05,0.00079353,0.014598,1536.0,1612.8,1689.6,0.0,0.0,0.0,0.0,1,1,1.7,1,1.0,0,1.0,0,1.0,0,1.0
20414,21132,'1',0.00038656,0.0052619,0.054209,868.0,911.4,954.8,0.0,0.0,0.0,0.0,1,1,8.2,1,1.0,0,1.0,0,1.0,0,1.0
20414,21540,'1',0.000137,0.001505,0.014615,1275.0,1275.0,1275.0,0.0,0.0,0.0,0.0,1,1,2.3,1,1.0,0,1.0,0,1.0,0,1.0
20414,21570,'1',0.00012382,0.0013585,0.013196,736.0,772.8,809.6,0.0,0.0,0.0,0.0,1,1,2.1,1,1.0,0,1.0,0,1.0,0,1.0
20414,21591,'1',0.00040768,0.0047053,0.041249,1044.0,1044.0,1044.0,0.0,0.0,0.0,0.0,1,1,6.8,1,1.0,0,1.0,0,1.0,0,1.0
20415,20428,'1',2.0571e-05,0.00025435,0.0025826,812.0,852.6,893.2,0.0,0.0,0.0,0.0,1,1,0.4,1,1.0,0,1.0,0,1.0,0,1.0
20415,21992,'1',0.00058532,0.006657,0.06012,736.0,772.8,809.6,0.0,0.0,0.0,0.0,1,1,9.7,1,1.0,0,1.0,0,1.0,0,1.0
20415,21995,'1',0.00095524,0.010483,0.10185,736.0,772.8,809.6,0.0,0.0,0.0,0.0,1,1,15.9,1,1.0,0,1.0,0,1.0,0,1.0
20416,82348,'1',0.00055638,0.0031966,0.00090548,205.0,215.2,225.5,0.0,0.0,0.0,0.0,1,1,0.8,1,1.0,0,1.0,0,1.0,0,1.0
20418,21238,'1',5.0378e-05,0.00053299,0.00797,1097.0,1151.9,1206.7,0.0,0.0,0.0,0.0,1,1,1.0,1,1.0,0,1.0,0,1.0,0,1.0
20418,21239,'1',6.7608e-05,0.00069789,0.010966,1097.0,1151.9,1206.7,0.0,0.0,0.0,0.0,1,1,1.4,1,1.0,0,1.0,0,1.0,0,1.0
20419,20751,'1',0.00031726,0.0034811,0.033813,736.0,772.8,809.6,0.0,0.0,0.0,0.0,1,1,5.3,1,1.0,0,1.0,0,1.0,0,1.0
20419,20752,'1',0.00029404,0.0041576,0.039647,868.0,911.4,954.8,0.0,0.0,0.0,0.0,1,1,6.2,1,1.0,0,1.0,0,1.0,0,1.0
20419,20766,'1',0.00051682,0.0073374,0.0694,868.0,911.4,954.8,0.0,0.0,0.0,0.0,1,1,11.0,1,1.0,0,1.0,0,1.0,0,1.0
20419,20910,'1',9.2241e-05,0.001027,0.0096842,736.0,772.8,809.6,0.0,0.0,0.0,0.0,1,1,1.5,1,1.0,0,1.0,0,1.0,0,1.0
20419,20913,'1',0.00023514,0.0027138,0.02379,736.0,772.8,809.6,0.0,0.0,0.0,0.0,1,1,3.9,1,1.0,0,1.0,0,1.0,0,1.0
20419,20924,'1',0.00025064,0.0027906,0.026314,736.0,772.8,809.6,0.0,0.0,0.0,0.0,1,1,4.2,1,1.0,0,1.0,0,1.0,0,1.0
20420,20713,'1',0.00037824,0.0048771,0.045493,812.0,852.6,893.2,0.0,0.0,0.0,0.0,1,1,7.3,1,1.0,0,1.0,0,1.0,0,1.0
20420,21685,'1',0.00045519,0.0052537,0.046057,736.0,772.8,809.6,0.0,0.0,0.0,0.0,1,1,7.6,1,1.0,0,1.0,0,1.0,0,1.0
20421,21745,'1',0.014922,0.060732,0.0148,159.0,166.9,174.9,0.0,0.0,0.0,0.0,1,1,14.6,1,1.0,0,1.0,0,1.0,0,1.0
20421,21751,'1',0.0047871,0.021554,0.0057352,175.0,183.7,192.5,0.0,0.0,0.0,0.0,1,1,5.4,1,1.0,0,1.0,0,1.0,0,1.0
20421,21891,'1',0.0054167,0.061948,0.017354,317.0,332.9,348.7,0.0,0.0,0.0,0.0,1,1,15.9,1,1.0,0,1.0,0,1.0,0,1.0
20422,21190,'1',6.4e-05,0.001079,0.019561,1556.0,1556.0,1556.0,0.0,0.0,0.0,0.0,1,1,2.2,1,1.0,0,1.0,0,1.0,0,1.0
20422,21193,'1',8.377e-05,0.00096681,0.0084752,736.0,772.8,809.6,0.0,0.0,0.0,0.0,1,1,1.4,1,1.0,0,1.0,0,1.0,0,1.0
20422,21238,'1',7.7e-05,0.001163,0.021141,1420.0,1489.9,1560.9,0.0,0.0,0.0,0.0,1,1,2.4,1,1.0,0,1.0,0,1.0,0,1.0
20423,20796,'1',0.00056593,0.0065319,0.057264,736.0,772.8,809.6,0.0,0.0,0.0,0.0,1,1,9.4,1,1.0,0,1.0,0,1.0,0,1.0
20425,20748,'1',0.00035677,0.0087595,4.5852,5108.0,5618.8,5618.8,0.0,0.0,0.0,0.0,1,1,98.5,1,1.0,0,1.0,0,1.0,0,1.0
20425,21483,'1',0.0003219,0.0066298,2.3519,3601.0,3781.1,3961.1,0.0,0.0,0.0,0.0,1,1,61.1,1,1.0,0,1.0,0,1.0,0,1.0
20426,20713,'1',0.00045149,0.0081889,0.081865,1046.0,1098.3,1150.6,0.0,0.0,0.0,0.0,1,1,12.6,1,1.0,0,1.0,0,1.0,0,1.0
20426,21107,'1',0.0010816,0.012998,0.12862,792.0,831.6,871.2,0.0,0.0,0.0,0.0,1,1,19.8,1,1.0,0,1.0,0,1.0,0,1.0
20427,22037,'1',0.00022685,0.0039573,0.042813,1046.0,1098.3,1150.6,0.0,0.0,0.0,0.0,1,1,6.3,1,1.0,0,1.0,0,1.0,0,1.0
20427,22039,'1',5.7474e-05,0.00066331,0.0058147,736.0,772.8,809.6,0.0,0.0,0.0,0.0,1,1,1.0,1,1.0,0,1.0,0,1.0,0,1.0
20429,20431,'1',0.0013909,0.011929,0.0033946,261.0,274.0,287.1,0.0,0.0,0.0,0.0,1,1,3.1,1,1.0,0,1.0,0,1.0,0,1.0
20429,21936,'1',0.011012,0.044813,0.010919,159.0,166.9,174.9,0.0,0.0,0.0,0.0,1,1,10.8,1,1.0,0,1.0,0,1.0,0,1.0
20430,20436,'1',0.0027673,0.030857,0.29162,736.0,772.8,809.6,0.0,0.0,0.0,0.0,1,1,46.1,1,1.0,0,1.0,0,1.0,0,1.0
20430,21108,'1',0.0011628,0.012695,0.12468,736.0,772.8,809.6,0.0,0.0,0.0,0.0,1,1,19.3,1,1.0,0,1.0,0,1.0,0,1.0
20430,21289,'1',0.0038154,0.043345,0.3963,736.0,772.8,809.6,0.0,0.0,0.0,0.0,1,1,63.7,1,1.0,0,1.0,0,1.0,0,1.0
20430,21685,'1',0.00058486,0.010818,0.10396,1046.0,1098.3,1150.6,0.0,0.0,0.0,0.0,1,1,16.3,1,1.0,0,1.0,0,1.0,0,1.0
...